<?xml version="1.0" encoding="UTF-8"?>

<!-- generated on 2026-04-14 10:56:45 by Eclipse SUMO netconvert Version 1.24.0
<netconvertConfiguration xmlns:xsi="http://www.w3.org/2001/XMLSchema-instance" xsi:noNamespaceSchemaLocation="http://sumo.dlr.de/xsd/netconvertConfiguration.xsd">

    <input>
        <node-files value="scenario.nod.xml"/>
        <edge-files value="scenario.edg.xml"/>
    </input>

    <output>
        <output-file value="scenario.net.xml"/>
    </output>

</netconvertConfiguration>
-->

<net version="1.20" junctionCornerDetail="5" limitTurnSpeed="5.50" xmlns:xsi="http://www.w3.org/2001/XMLSchema-instance" xsi:noNamespaceSchemaLocation="http://sumo.dlr.de/xsd/net_file.xsd">

    <location netOffset="0.00,0.00" convBoundary="0.00,0.00,3000.00,100.00" origBoundary="0.00,0.00,3000.00,100.00" projParameter="!"/>

    <edge id=":n1_0" function="internal">
        <lane id=":n1_0_0" index="0" speed="27.78" length="15.16" shape="988.84,-8.00 1004.00,-8.00"/>
        <lane id=":n1_0_1" index="1" speed="27.78" length="15.16" shape="988.84,-4.80 1004.00,-4.80"/>
        <lane id=":n1_0_2" index="2" speed="27.78" length="15.16" shape="988.84,-1.60 1004.00,-1.60"/>
    </edge>
    <edge id=":n1_3" function="internal">
        <lane id=":n1_3_0" index="0" speed="21.36" length="15.82" shape="989.98,3.22 992.92,1.02 995.64,-1.63 999.03,-3.86 1004.00,-4.80"/>
        <lane id=":n1_3_1" index="1" speed="20.36" length="15.82" shape="989.98,3.22 993.02,1.52 995.89,-0.03 999.31,-1.16 1004.00,-1.60"/>
    </edge>

    <edge id="m1" from="n0" to="n1" priority="-1" type="highway.motorway">
        <lane id="m1_0" index="0" speed="27.78" length="988.84" shape="0.00,-8.00 988.84,-8.00"/>
        <lane id="m1_1" index="1" speed="27.78" length="988.84" shape="0.00,-4.80 988.84,-4.80"/>
        <lane id="m1_2" index="2" speed="27.78" length="988.84" shape="0.00,-1.60 988.84,-1.60"/>
    </edge>
    <edge id="m2" from="n1" to="n2" priority="-1" type="highway.motorway">
        <lane id="m2_0" index="0" speed="27.78" length="1996.00" acceleration="1" shape="1004.00,-8.00 3000.00,-8.00"/>
        <lane id="m2_1" index="1" speed="27.78" length="1996.00" acceleration="1" shape="1004.00,-4.80 3000.00,-4.80"/>
        <lane id="m2_2" index="2" speed="27.78" length="1996.00" shape="1004.00,-1.60 3000.00,-1.60"/>
    </edge>
    <edge id="onramp" from="nonr" to="n1" priority="-1" type="highway.motorway_link">
        <lane id="onramp_0" index="0" speed="27.78" length="213.21" shape="799.28,98.57 989.98,3.22"/>
    </edge>

    <junction id="n0" type="dead_end" x="0.00" y="0.00" incLanes="" intLanes="" shape="0.00,0.00 0.00,-9.60"/>
    <junction id="n1" type="priority" x="1000.00" y="0.00" incLanes="m1_0 m1_1 m1_2 onramp_0" intLanes=":n1_0_0 :n1_0_1 :n1_0_2 :n1_3_0 :n1_3_1" shape="1004.00,0.00 1004.00,-9.60 988.84,-9.60 988.84,0.00 989.27,1.79 990.70,4.65 993.38,3.21 995.38,2.04 997.07,1.14 998.82,0.51 1001.01,0.13">
        <request index="0" response="00000" foes="11000" cont="0"/>
        <request index="1" response="00000" foes="11000" cont="0"/>
        <request index="2" response="00000" foes="11000" cont="0"/>
        <request index="3" response="00111" foes="00111" cont="0"/>
        <request index="4" response="00111" foes="00111" cont="0"/>
    </junction>
    <junction id="n2" type="dead_end" x="3000.00" y="0.00" incLanes="m2_0 m2_1 m2_2" intLanes="" shape="3000.00,-9.60 3000.00,0.00"/>
    <junction id="nonr" type="dead_end" x="800.00" y="100.00" incLanes="" intLanes="" shape="800.00,100.00 798.57,97.14"/>

    <connection from="m1" to="m2" fromLane="0" toLane="0" via=":n1_0_0" dir="s" state="M"/>
    <connection from="m1" to="m2" fromLane="1" toLane="1" via=":n1_0_1" dir="s" state="M"/>
    <connection from="m1" to="m2" fromLane="2" toLane="2" via=":n1_0_2" dir="s" state="M"/>
    <connection from="onramp" to="m2" fromLane="0" toLane="1" via=":n1_3_0" dir="s" state="m"/>
    <connection from="onramp" to="m2" fromLane="0" toLane="2" via=":n1_3_1" dir="s" state="m"/>

    <connection from=":n1_0" to="m2" fromLane="0" toLane="0" dir="s" state="M"/>
    <connection from=":n1_0" to="m2" fromLane="1" toLane="1" dir="s" state="M"/>
    <connection from=":n1_0" to="m2" fromLane="2" toLane="2" dir="s" state="M"/>
    <connection from=":n1_3" to="m2" fromLane="0" toLane="1" dir="s" state="M"/>
    <connection from=":n1_3" to="m2" fromLane="1" toLane="2" dir="s" state="M"/>

</net>
