<?xml version="1.0" encoding="UTF-8"?>

<!-- generated on 2026-04-13 12:06:16.346554 by randomTrips.py v1_24_0+0000-b72eb3fabc8
<configuration>
    <net-file value="results\zurich\zurich.net.xml"/>
    <output-trip-file value="temp_urban_trips.xml"/>
    <remove-loops value="True"/>
    <end value="5000.0"/>
    <period value="1.25"/>
</configuration>
-->

<!-- generated on 2026-04-13 12:06:01 by Eclipse SUMO duarouter Version 1.24.0
<duarouterConfiguration xmlns:xsi="http://www.w3.org/2001/XMLSchema-instance" xsi:noNamespaceSchemaLocation="http://sumo.dlr.de/xsd/duarouterConfiguration.xsd">

    <input>
        <net-file value="results\zurich\zurich.net.xml"/>
        <route-files value="temp_urban_trips.xml"/>
    </input>

    <output>
        <output-file value="routes.rou.xml"/>
        <alternatives-output value="NUL"/>
    </output>

    <processing>
        <remove-loops value="true"/>
    </processing>

    <time>
        <begin value="0"/>
        <end value="5000.0"/>
    </time>

    <report>
        <no-warnings value="true"/>
        <ignore-errors value="true"/>
        <no-step-log value="true"/>
    </report>

</duarouterConfiguration>
-->

<routes xmlns:xsi="http://www.w3.org/2001/XMLSchema-instance" xsi:noNamespaceSchemaLocation="http://sumo.dlr.de/xsd/routes_file.xsd">
    <vehicle id="0" depart="0.00">
        <route edges="30437972 863885135#0 -11420417#1 -11420417#0 -11420411 -304140432#1 -304140432#0 -28567931 -128027741 -759083025 -128027740 -11420576#1"/>
    </vehicle>
    <vehicle id="1" depart="1.25">
        <route edges="-556286307 -556286286 -352557042#1 -1042346170#1 -39763022#3 -39763022#2 -39762660#1 557621121#0 4721151 47609444 575246675 575246677 575246681 575246673 4721153 4622097#0 4622097#1 4622097#2 4626793#0 576471543#0 576471543#1 576471543#2 576460468#1 576460468#2 28071444 1375209836#1 -8079541#1 -536821230#1 -149584038#1 -149584038#0 -1409234250 -1409234251 -561550741#2 -561550741#0 146054105 118960612#0 118960612#3 118960612#4 708073573 118960604 191797814#0 182545322 208193952 -285778804#1 536683917 285778802#0 6169188 1027169#2 74071531#0 60795696#0 868093967 16775088#0 -206574011#1 -166991394#1 1434346717 1434346725#1 191828218#0 1434313710 -521162270"/>
    </vehicle>
    <vehicle id="2" depart="2.50">
        <route edges="44353652#1 552831854#0 552831854#1 552831854#2 44794880#0 501019424 -31715548#1 -31715548#0 -27429522 38259342 50480412 -656591301 37973366 37973365"/>
    </vehicle>
    <vehicle id="3" depart="3.75">
        <route edges="5880398#2 5880398#3 617418353#1 -703414609#1 -703414609#0 -1160421425 -317738465#1 -8163497 -148476132#3 -148476132#2 -148476132#1"/>
    </vehicle>
    <vehicle id="4" depart="5.00">
        <route edges="11524017 24252317 -745075214 -16503129#1 -16503129#0 541012878 -541012882 -541012889 541012884 -541012883 -541012886 -541012870#3 -541012870#1 -541012870#0 -541012856 -541012867 -541012857 -541012858 -541012895#1 -541012895#0 -541012868 23644733 506653374 23548485 395173268#0 395173268#1 506653387#0 506653387#1 506653376 5075623 1173182164 543129599 6067875 543129615 5068112#2 1163544454 -1163544455#1"/>
    </vehicle>
    <vehicle id="5" depart="6.25">
        <route edges="-447860929#1 -447860929#0 11988468 561297535 33713044#0 27992887#0 368819709#0 368819709#1 368819709#3 131572397#0 90082034 1350859696 371162145#0 1163354923 362892919 385873746#1 385873746#2 381190531#0 381190531#1 381190531#2 550657241 38255459 1167100906#0 533566033#0 32391477#0 4730804 29188369 23167504#0 313463919 536837427 143738525 536844180 143738524 218455027 1273201169 26154765#0 525960750#1 26154762 28127417#0 90082019#0 90082032 12412615 -824558179#1 14942241 14942144"/>
    </vehicle>
    <vehicle id="6" depart="7.50">
        <route edges="-11419255 -12090573#0 -515247689#0 515247690 9347418#7 515247691 -557366233 -1414922619#0 -1414922618#0 -9345570#0 36725106 71135695 27842776#1 1042006990#0 89614473#0 -174007941#1 -89614475#1 -556777357#1 412844317 -576429034#0 -131569031#4 -131569031#3 -131569031#2 -131569031#1 -131569031#0 33713044#0 27992887#0 368819709#0 368819709#1 368819709#3 131572397#0 90082034 1350859696 362887009 -358720199#1 -371166588 -576794197#1 -576794197#0 -576794198#1 -338677042#1 -24064833#1 -23224938 -534203017#1 -592039062 -381209450#0 -1165579755 -572472174#1 -24064844#1 -4721156#1 4483780 28682733 50480412 -656591301 -429114142#1 -429114142#0 44354801#0"/>
    </vehicle>
    <vehicle id="7" depart="8.75">
        <route edges="31573971 362892936 136057337#1 -12368475 -576794200#2 -576794200#1 534203012#0 576794196 362892960 1453896332 455062186#0 367057662 90082058#0 606145414 1350859697 362928605#1 145915182#0 461216263#0 -33713044#1 131569031#0 131569031#1 131569031#2 131569031#3 131569031#4 576429034#0 576429034#1 556777357#0 89614475#0 174007941#0 -89614473#1 -174007939#1 537156009#0 537156009#2 537156009#4 36724391#0 575246602#0 28687385#0 39762660#0 39763022#0 39763022#3 1042139880 352557042#0 -1199019998 -193711507#4 -193711507#3"/>
    </vehicle>
    <vehicle id="8" depart="10.00">
        <route edges="-4495333#0 134807809 134807807 -754867643#0 -558245728#0 -27467570 23318289#0 23318289#1 28817691#0 1305366459 -218926423#2 -218926423#1 -218926423#0 -1209675005#0 602089646 -218971860#1 -218971860#0 -559462245 501215198 576864697 -559462248 521436341#0 521436342 -23920557 -559462250#1 534546682#0 533775756#0 549020386#0 549020386#1 534851512#0 361876821 569781024 15801814#0 60447877 1169386967 1169386959#0 148349697 -30748799 -544418922#1 -942285773#1 -35162769 -550432840#1 -35162767#1 -35162767#0 -550432841#1 331553004#0 1078174821 942348910#0 -860373105#3 -860373105#1 -860373105#0 524434352 543698012#0 4572089 4440330#0 860373106#0 860373106#1 1163547442#0 1122939439#0 -298904471#1 298904469#1 1384314608#0 313465298#0 596514120 29116101#0 29116101#2 -26646072"/>
    </vehicle>
    <vehicle id="9" depart="11.25">
        <route edges="536908725 670738521#0 371344296#0 371344296#1 602621681 602621673 498169246 4950245 4950246 146778074#0 146778074#1 146778067 -548370032 -548370033 4730416#0 548370035 548370031#0 334810149#0 334810149#1 548370029 968872142#0 968872142#1 548370030 548370036 15801838#0 33694486#0 1051820108 -4803559 -1056324193#0"/>
    </vehicle>
    <vehicle id="10" depart="12.50">
        <route edges="-536753075 -28800623#2 99293278#0 599784571 118641215#0 599784551 530760617#0 88343070#1 28423906 28687600#0 28687600#1 530760613#0 530760613#1 1137244531#0 28423788 536961099 1137244529 1395340223 11391988 43250248 90073393 549325299#0 566127208#0 113568249 8420663 28193745#0 172320346#0 968148931 80778141#0 80778141#1 10622060#0 10622060#1 27411577 1163354923 362892919 385873746#1 385873746#2 381190531#0 381190531#1 381190531#2 550657241 38255459 1167100906#0 533566033#0 32391477#0 4730804 29188369 23167504#0 313463919 536837427 143738525 536844180 143738524 218455027 1273201169 26154765#0 -5881719 -1212260394 583730162 73848804#0 73848804#1 73848804#2 73848804#4 73848804#6 73848804#7 73848804#8 73848804#9 1282935996#0 1415900545#0 -822520818 -1374748793#1 15218521#0 15218521#1 40535369"/>
    </vehicle>
    <vehicle id="11" depart="13.75">
        <route edges="-791130340 -83115253#1 -83115253#0 4558441 207098958 967647588 967647590#1 1432250947 976011959 507747915 32928276 488736536#0 1346189639 73223940#0 -284105543#1 -31785331#1"/>
    </vehicle>
    <vehicle id="12" depart="15.00">
        <route edges="83545871 44354804 44794880#0 -9389157#2 554005032#0 293285775 293146060 15126428 377438208 371730209 362892928 27410490 90524272 362892924#1 358991826#0 358991826#1 381195107 362892960 1453896332 455062186#0 367057662 90082058#0 606145414 1350859697 362928605#1 145915182#0 461216263#0 -33713044#1 131569031#0 131569031#1 131569031#2 131569031#3 131569031#4 576429034#0 576429034#1 556777357#0 89614475#0 174007941#0 -89614473#1 -174007939#1 537156009#0 537156009#2 537156009#4 36724391#0 575246602#0 28687385#0 525373506#0 23734869 36723900 542148064 -41712985 -27838319#1 -27838319#0 -89609601"/>
    </vehicle>
    <vehicle id="13" depart="16.25">
        <route edges="-146778074#1 -24978203 -146545821 -92142133 -627360923 136617339#0 532158278 549356141#0 549356141#1 423368254#0 146783879 43068084#0 601313558#0 147633771#0 559462254#0 5183081#0 218931349 1316608462 548134627 548134625 548134623 548134624#0 1163500948#0 27338864#0 27338864#1 1132425474 500044920 91360441 545985168 524395738#0 524395738#1 984868005#0 499921705 601313594#0 601313594#2 524395739#0 545985114 545985115 15458549#0 28805427#0 28805427#1 29219530#0 551563368 1208817995#0 1208817996 372798715#1 454907784 454907779 15269029"/>
    </vehicle>
    <vehicle id="14" depart="17.50">
        <route edges="-536826452#3 -536826452#2 -536826452#1 -536826452#0 -28567629#1 -536826949#1 -536836676 -1210783332 -35275929#1 -174693504#2 -1210782730 -1210782731 -174693506#1 -174694073#3 -174694073#2 -174694073#1 -174694073#0 -8105822#1 27992887#0 28671072#0 131569032 546093817#1 546093817#2 131569033 1167905445#0 1167905446 38101625 38148167 12123224#0 12123224#1 461214213 558664486#0 24377936#0 1215103230#0 377701953#0 41266875#0 41266875#1 -574500417#1 -574500427#1 -920654823 476580917#0 476580917#1 -1305374215 -574500415#6 -574500415#5 -574500415#3 -574500415#2 -574500415#0 517166257 -577791927 -529381446#2 -529381446#1 -593076013#1 -593076012 23570562 593076011 294144023#0 27410107#0 1167488601 4734976 461211027 461211028 577246823 4734974 145204590#0 145204590#1 145204590#2 423368254#0 146783879 43068084#0 601313557#0 12618874#0 12618874#1 1169055176 1169055177#0 549020386#0 549020386#1 534851512#0 361876821 33556413#0 69537613 854904053"/>
    </vehicle>
    <vehicle id="15" depart="18.75">
        <route edges="15218472 -1354392885#1 -1354392885#0 82955607#2 82955607#3 817834308#0 817834309 33998799 500735157#0 -1052070762#4 -1052070762#2 -1052070762#1 -1052070762#0 -1052070761 -821373098#0 -1312057055 -821373099 -1312057668 1312057669 -824639177 -824140373 -24574780#2 -24574780#1 -24574780#0 1466239128 207123544 229804702 1282935997#0 1282935997#1 15218556#0 15218556#2 15218556#3 26154817 26154816 70748314#0 -70748296 -1341795079 -27433876#0 547047276 -547047277#0 -4558441 83115253#0 83115253#1 791130340 596514114#0 596514114#1 29116101#0 29116101#2 1209522756 1211302819 28682845#0 28682845#1 28682845#2 28682845#4 192236405#0 31261713#0 1344057485#0 31261712#1 429114142#0 429114142#1 656591301 21020552 50480403#0 50480403#1 50480417 171993690 27410389#0 90004156 455329864#0 471488130 27410413#0 90004164 90062603-AddedOnRampEdge 90062603 90062603-AddedOffRampEdge 147239331 257237956 26828044 8420606 38093974 646891480 444245101 13870985#0 13870985#1 32041768#0 32041768#2 141698824#0 141698824#1 566728848 566218730#0 566728851 566728849#0 566218731#0 566218731#1 30764967 599784561#0 142304937 118641211 1265922494#0 120570320#0 882312130#0 882312130#1"/>
    </vehicle>
    <vehicle id="16" depart="20.00">
        <route edges="-968727971 207681383 285303242 1366269193 -207681379 -285303238 -591624382 -285303240 -948600439 -592072769 -592072770 -285303236 -285303232#1 -285303232#0 -800792997 -30451180#1 -83689267#1 118960620 191828220#0 208193952 -285778804#1 536683917 285778802#0 6169188 1027169#2 74071531#0 60795696#0 868093967 16775088#0 -206574011#1 -166991394#1 -311957345#2 -311957345#0 -311957341 -4257797#1 26154663#0 28127457#0 852138916 29199469#0 29199469#1 -852138914#1 -29199470 -28193587#1 90082032 12412615 -824558179#1 -824558179#0 30442756 -422926695#2 -1161994555 -548701317 -548701319 210633406 4748575#0 824639178 -817922723 -817922724#0 207123542"/>
    </vehicle>
    <vehicle id="17" depart="21.25">
        <route edges="548338017 1207089551#0 1207089551#1 24232453 13952105#1 -75528935 75528934 75528930#1 -1227184777#0 1316608460 -218931349 -5183081#1 534546682#0 533775756#0 549020386#0 549020386#1 534851512#0 361876821 569781024 15801814#0 60447877 1169386967 1169386959#0 148349697 -30748799 -544418922#1 -942285773#1 -35162769 -550432840#1 -35162767#1 -35162767#0 -550432841#1 331553004#0 1078174821 942348910#0 -860373105#3 -860373105#1 -860373105#0 524434352 543698012#0 4572089 4440330#0 860373106#0 860373106#1 1163547442#0 -1390108240 -842455631 -603349777 -15675699 75470557#0 284686652 284686647 547047277#0 28682875 284686651 547047228 15218593 68485346#0 68485346#1 284686646 1324659288 1163561640#0 826204850#0 826204850#1 374541881 143738526 -536837427 -313463919 -826188134 -1169017542#1 -29188368"/>
    </vehicle>
    <vehicle id="18" depart="22.50">
        <route edges="565569087 33391522 10595011#6 565569090#0 39218358 -1163531329#1 -28642890#4 -28642890#1 -28642890#0 -911511065 10595076 -552173882#1 8423582#0 8423582#2 15055696 552173887 95575616 71167253 4497154#0 551608315 24804508#0 24804508#1"/>
    </vehicle>
    <vehicle id="19" depart="23.75">
        <route edges="398028002#0 -601718666#2 4479836#0 374407128 15677654 77079364 77079366 77078537#0 -1169055177#1 -1169055176 -1169055178 -12618874#0 -601313557#1 -43068084#1 341018763#0 341018763#1 -190714064#1 -145204590#3 -145204590#1 -145204590#0 71167245 576802235 136124103 4748724 -5771348 -27410107#1 188867142#0 381223036#0 1055792179#0 90062595#0 90062590 90004143 90062603-AddedOnRampEdge 90062603 90062603-AddedOffRampEdge 147239331 257237956 26828044 8420606 38093974 646891480 444245101 13870985#0 13870985#1 32041768#0 32041768#2 141698824#0 141698824#1 566728848 566218730#0 566728851 566728849#0 566218731#0 566218731#1 30764967 599784561#0 142304937 118641211 1265922494#0 120570320#0 882312130#0 882312130#1 -33688940#1 502124715#0 549175734 10595999#0 33689035 231243824 558005587#1 558005587#2 558005588 30481452#0 28984745 558630458 1210776823"/>
    </vehicle>
    <vehicle id="20" depart="25.00">
        <route edges="-4743769#1 284686653#0 284686653#1 -75470557#1 15675699 603349776#0 842455631 15675745#0 1089407128#0 11917063 526016660 548529066#0 526016652 1165309879 526016615#0 33693799#0 33693780#0 33693780#1 33693780#2 543888804 543888805 332455374#0 548370033 548370032 4398951 92142139 92142136 -627360923 136617339#0 532158278 549356141#0 549356141#1 423368254#0 146783879 43068084#0 601313558#0 147633771#0 559462254#0 5183081#0 218931349 1316608462 548134627 548134625 548134623 548134624#0 1163500948#0 27338864#0 27338864#1 1132425474 500044920 91360441 545985168 524395738#0 524395738#1 984868005#0 499921705 601313594#0 601313594#2 524395739#0 545985114 545985115 15458549#0 28805427#0 28805427#1 29219530#0 551563368 1208817995#0 1208817996 372798715#1 454907784 454907779 454907786 454907785 454907774 1121256657 454907773"/>
    </vehicle>
    <vehicle id="21" depart="26.25">
        <route edges="-13872230#0 83485390#1 33968953 501426102 35286914 -574419153 -574419154 24286056#1 -434344661#1 -434344661#0 374405691 572383207#0 572383207#1 94717976 94717979 94717988#0 41274901 50993194#0 50993194#1 622787518#0 622787492 -534203014#1 -577501568 -31574072 -41266871#1 -534203016#1 -534203013#1 -534203013#0 -27467445#1 -27467445#0 -536824257#1"/>
    </vehicle>
    <vehicle id="22" depart="27.50">
        <route edges="-149584089 561550741#1 1409234251 1409234250 149584038#0 149584038#1 536821230#0 33301768 33301816 -520038519 33301866#1 -584711578 1233009638 -584711564 -701384341#1 32347547 330207018#0 701384344 29343692#0 301278121 293146097 -554005032#1 9389157#0 501019424 -31715548#1 -31715548#0 -27429522 38259342 50480412 -656591301 -429114142#1 -429114142#0 -31261712#1 -31261712#0 -4592591#1 4533227#0 1169825564 1169825563 1169825562#0 527458585#0 1169825565 1169825567 1169825566 1169825568 1111971585#1 1111971585#2 577305652#0"/>
    </vehicle>
    <vehicle id="23" depart="28.75">
        <route edges="293285775 -12533977 -501019434 550432832 -198426623#3 -198426623#2 -198426623#1 501019424 -31715548#1 -31715548#0 -27429522 38259342 50480412 -656591301 -429114142#1 -429114142#0 -31261712#1 -31261712#0 -4592591#1 4533227#0 1169825564 1169825563 1169825562#0 527458585#0 1169825565 1169825567 1169825566 1169825568 1111971585#1 1111971585#2 577305652#0 821304189 217451769 20020535 27014785#0 4730408#1 4730409 377260491#0 188708015 31248358 24042836#0 24042836#1 39013713 284105541 32391483#0 32391483#1 -604653795#2 -604653795#0 -10567987#1 -10567987#0 24668899 554029744 214071214 821484879#0 821414822 821484874#0 207669528 608387914 313461876 38209977 38327026#0 38327026#1 1304300499 1304300500 437752159 840189966#0 17051850 17051927 189484004#0 38687028 1299502116 1299502115 374430168 369337851 27038301 437752160 1059553010"/>
    </vehicle>
    <vehicle id="24" depart="30.00">
        <route edges="-9347845#1 -9347845#0 558005599 -9347844#1 -9347844#0 -536826452#0 -28567629#1 -536826949#1 -536836676 -1210783332 -35275929#1 -174693504#2 -1210782730 -1210782731 -174693506#1 -174694073#3 -174694073#2 -174694073#1 -174694073#0 -8105822#1 27992887#0 368819709#0 368819709#1 368819709#3 131572397#0 90082034 1350859696 371162145#0 1163354923 362892919 385873746#1 385873746#2 381190531#0 381190531#1 381190531#2 550657241 38255459 1167100906#0 533566033#0 32391477#0 4730804 29188369 4743859#0 826188135#1 127791716 5074648#1 -152001416 -1324076751 -4803403"/>
    </vehicle>
    <vehicle id="25" depart="31.25">
        <route edges="-547917171 43394228#2 547917169 1136831963#0 43394226#0 43394226#2 75528934 75528930#1 -1227184777#0 1316608460 -218931349 -5183081#1 559462255 -147633771#1 -601313558#1 -43068084#1 341018763#0 341018763#1 -190714064#1 -145204590#3 -145204590#1 -145204590#0 71167245 576802235 136124103 4748724 -5771348 -27410107#1 188867142#0 381223036#0 1055792179#0 90062595#0 90062590 90004143 90062603-AddedOnRampEdge 90062603 90062603-AddedOffRampEdge 147239331 257237956 26828044 8420606 38093974 646891480 444245101 13870985#0 13870985#1 32041768#0 32041768#2 141698824#0 141698824#1 566728848 566218730#0 566728851 566728849#0 566218731#0 -566728846 -79560725#2"/>
    </vehicle>
    <vehicle id="26" depart="32.50">
        <route edges="313458176#0 4375013#0 4375013#2 150995110#0 150995110#2 150995110#4 150995110#5 150995106#1 421340867 150995108#0 150995108#1 150995108#2 560587749#0 560587749#1 -28642890#4 -28642890#1 -28642890#0"/>
    </vehicle>
    <vehicle id="27" depart="33.75">
        <route edges="320778226 30535162#0 1163570278#0 839695994 -136129993 49152441 369337851 27038301 437752160 1059553010 38327025#0 207669537 -821484874#1 -821414822 -821484879#1 -554029745#1 -554029744 -1050464202 10567987#0 10567987#1 604653795#0 604653795#1 24043173 548701320 70732841#0 603349808 70748294 817867131 188708013#0 188708013#1 1364281503 817867132#0 1367076582 15675937 548529066#0 526016643 -536841066 -28630236 871499634 526016665#0 4533226 699663268#0 4743830 -1111971585#1 -1169825568 -1169825566 -1169825567 -1169825565 -527458585#1 -1169825562#1 -1169825563 -1169825564 -4533227#1 31261713#0 1344057485#0 31261712#1 44354801#0 38028807 38028808 38028809 550676057 550676056 44794878#1"/>
    </vehicle>
    <vehicle id="28" depart="35.00">
        <route edges="-30473367 304140432#1 11420411 -128027782#1 -128027782#0 -26634499#1 31857324#0 -1232692287 -833526336#2 -833526336#0 -31857349#2 -31857349#0 575268609 1168273728 -26634496#1 -30474150 525176571 -525176579 -568509933#1 515023093 850995022 515023101 558630436 -568227903 -558630438 515023094 30481348#0 30481348#1 28984745 558630458 1210776823 1210778513 -55155499 -10596127#1 28567647#0 536823977 561297487 -536826949#1 -536836676 -1210783332 -35275929#1 -174693504#2 -1210782730 -1210782731 -174693506#1 -174694073#3 -174694073#2 -174694073#1 -174694073#0 -8105822#1 27992887#0 28671072#0 131569032 546093817#1 546093817#2 131569033 1167905445#0 1167905446 38101625 38148167 12123224#0 12123224#1 461214213 558664486#0 24377936#0 1215103230#0 377701953#0 41266875#0 41266875#1 -574500417#1 -574500427#1 -920654823 476580917#0 476580917#1 -1305374215 -574500415#6 -574500415#5 -574500415#3 -574500415#2 -574500415#0 517166257 -577791927 -529381446#2 -529381446#1 -593076013#1 -593076012 23570562 593076011 294144023#0 120613501 294148769 374528655 120613500#0 120613502 51265912#0 1121964959#1 4730406 27014767#0 20020535 27014785#0 4730408#1 4730409 377260491#0 24150702#2 440012493 1163566968#0 506653387#0 506653387#1 395173266 374433859 60447009 266894167 541012868 541012895#0 541012895#1 541012858 541012857 541012867 541012856 541012870#0 541012870#1 541012870#3 541012886 541012883 541012892 541012889 541012882 541012881 16503129#0 16503129#1 745075214 745075215 541012880 528695738 741279504 259338344 -23167459#2 -23167459#1 -23167459#0 -1120617075"/>
    </vehicle>
    <vehicle id="29" depart="36.25">
        <route edges="9532404 1308759310 1177023264 1177023504 1177023265 35359564#0 35359564#0-AddedOffRampEdge 35359564#1 537948558 24150898 189484004#0 38687028 38152064#0 38210039 40959640 40959640-AddedOffRampEdge 136130942 1246474483 1246474484 1246474485 1246474488 537948565 537948565-AddedOffRampEdge 32278537"/>
    </vehicle>
    <vehicle id="30" depart="37.50">
        <route edges="181364918#0 -72863636 -10596127#1 -536821796#1 -27411318#1 -142304936#1 -1137249231#1 549175731#1 142304938#0 33688940#0 -882312130#2 -882312130#0 -120570320#1 -1265922494#1 -118641211 599784580#0 599784571 118641215#0 599784551 530760617#0 88343070#1 28423906 28687600#0 28687600#1 530760613#0 530760613#1 1137244531#0 79549405 566127191 566728849#0 198481170#0 198481170#2 198481170#3 566218728 -566728845 38805866"/>
    </vehicle>
    <vehicle id="31" depart="38.75">
        <route edges="-555161515 395173267 -172222117#1 -855557607#1 -1168931395#1 -188708010 -188708009 -4398888#2 60447876 1169386963 60447874#0 27361257 33556413#0 69537613 854904053 27361348#0 313458176#0 4375013#0 4375013#2 566100297#0 566100297#1 566100297#2 566100297#3 566100297#4 566100297#5 563626340#0 1364503427 1364503428 5198100#0 1464397883 95575632 601313586 563664967 563664980#0 563664980#1 563664980#3 563664968 522547665 71167250 71167253 4497154#0 551608315 551608316#0 520789135 520789139 520789134#1 868631730 517546995#0"/>
    </vehicle>
    <vehicle id="32" depart="40.00">
        <route edges="-47609450#0 -721112225 -4721151 -557621121#1 -28687385#2 -575246602#4 -36724391#2 -537156009#5 -537156009#3 -537156009#1 174007939#0 89614473#0 -174007941#1 -89614475#1 -556777357#1 412844317 -576429034#0 -131569031#4 -131569031#3 -131569031#2 -131569031#1 -131569031#0 33713044#0 27992887#0 368819709#0 368819709#1 368819709#3 131572397#0 90082034 1350859696 371162145#0 1163354923 362892919 385873746#1 385873746#2 381190531#0 381190531#1 381190531#2 550657241 38255459 1167100906#0 533566033#0 32391477#0 4730804 29188369 23167504#0 313463919 536837427 143738525 536844180 143738524 218455027 1273201169 26154765#0 525960750#1 26154762 28127417#0 90082019#0 1163561074#0 1035592854 571403216 1051585662#0 -325418561#4 -325418561#2 -11661529"/>
    </vehicle>
    <vehicle id="33" depart="41.25">
        <route edges="-592638622 -552409659 -552409660#1 -552409660#0 5183161#0 1069899934#0 1069899934#2 28805474#0 28805474#2 28805474#3 371345772#1 95575617 522547668 545738444 522547665 15238426 206802253#0 206802253#1 552173876#0 552173870#0 27467624 44181712#1 44181712#2 15220012 567855066#0 567855066#1"/>
    </vehicle>
    <vehicle id="34" depart="42.50">
        <route edges="-429114141#6 -429114141#4 -429114141#3 -429114141#2 -429114141#1 429114140#0 -84083637 -429114137 -1388973300 4310928 682608867 682608864#0 374528655 4799417#0 -1411243431 -627360923 136617339#0 532158278 549356141#0 549356141#1 423368254#0 146783879 43068084#0 601313558#0 147633771#0 559462254#0 5183081#0 218931349 1316608462 548134627 548134625 548134623 548134624#0 1163500948#0 27338864#0 27338864#1 1132425474 500044920 91360441 501129547#0 501129547#1 376791914 8147563#0 54189833 54189834 548134667#1 992218877 548134670#1 8143668#0"/>
    </vehicle>
    <vehicle id="35" depart="43.75">
        <route edges="575246677 -4622092#2 -4622092#1 -4622092#0 -575246710 -284092320#2 -284092320#1 -284092320#0 -191828659 -30474688 89614473#0 -174007941#1 -89614475#1 -556777357#1 -412844316 -1169806739#1 -968722831 -347632047#1 8041013#0"/>
    </vehicle>
    <vehicle id="36" depart="45.00">
        <route edges="32928276 39013715#0 82956882 147161801 284686657 147161798#0 70748311#0 330403834 179097891#0 68485346#0 68485346#1 284686646 1324659288 1163561640#0 826204850#0 826204850#1 374541881 371721469 536844180 68480125#0 68480125#1 1306205458 1306205457#1 1306205466 62206856#1 603655392#0 603655393 529796501#0 1434344021 703414620#1 62207343#0 166991394#0 206574011#0 15218609 16775062 492703287 74071551#2 285778799#0 1308789501 1308789500 191824723 118960617#0 182545306 83689267#0 30451180#0 27410810#0 285303232#0 14851504 591624384#0 1157448270"/>
    </vehicle>
    <vehicle id="37" depart="46.25">
        <route edges="623571881 143722134#6 35162947 -1344040643 -92142139 -4398951 -548370032 -548370033 4730416#0 548370035 548370031#0 334810149#0 334810149#1 548370029 968872142#0 968872142#1 548370030 968872143 548370037#0 4572161 4730408#1 4730409 377260491#0 188708015 817867131 188708013#0 188708013#1 1364281503"/>
    </vehicle>
    <vehicle id="38" depart="47.50">
        <route edges="-546093815 546093823 -546093819 -145915178 -546093820#1 368819709#0 368819709#1 368819709#3 131572397#0 90082034 1350859696 362928602 1453896332 1453896331#0 -558664520#3 -558664520#1 558664518#0 -558664521#2 -558664521#0 503330491#0 503330486 24377936#0 1215103230#0 377701953#0 41266875#0 41266875#1 -574500417#1 -574500427#1 -920654823 476580917#0 476580917#1 -1305374215 -574500415#6 -574500415#5 -574500415#3 -574500415#2 -574500415#0 517166257 -577791927 -529381446#2 -529381446#1 -593076013#1 -593076012 23570562 593076011 294144023#0 27410107#0 1167488601 4734976 461211027 461211028 577246823 4734974 145204590#0 145204590#1 145204590#2 423368254#0 146783879 43068084#0 601313558#0 147633771#0 11943595 1163500949#0 1113744422#1 1113744422#2 4393002#0 4393002#1 4393002#2 198488290#0 198488290#1 198488290#2 522547661#0 1364503427 1364503428 5198100#0 1464397883 95575632 601313586 563664967 563664980#0 563664980#1 563664980#3 563664968 522547665 71167250 71167253 4497154#0 551608315 551608316#0"/>
    </vehicle>
    <vehicle id="39" depart="48.75">
        <route edges="190714063 31009338 1189932537 13856823#3 13856823#4 27467570 558245726#0 558245726#1 558245726#2 1189931172#1 564390782 13953773#2 -564390793#0"/>
    </vehicle>
    <vehicle id="40" depart="50.00">
        <route edges="24043220 22944609 44774429 537948560 537948559 17051721 24375635 40959640 40959640-AddedOffRampEdge 136130942 1246474483 1246474484 1246474485 1246474488 537948565 537948565-AddedOffRampEdge 17051627 1296210318 537948563 32278541 537948562 44774431 210731931#0 548701320 32391480#0 70748324#0 464916844#0 464916844#1 548701322#0 284105543#0 1346189638#0 1346189641 -488736536#1 39013715#0 82956882 147161801 284686657 147161798#0 70748311#0 330403834 179097891#0 68485346#0 68485346#1 284686646 1324659288 1163561640#0 826204850#0 826204850#1 374541881 371721469 536844180 143738524 218455027 1273201169 26154765#0 525960750#1 26154762 28127417#0 90082019#0 28193587#0 29199470 852138914#0 852138907#0 852138902 28127420 594594197"/>
    </vehicle>
    <vehicle id="41" depart="51.25">
        <route edges="10689326#4 -530969936#2 -530969940#1 -136032927#2 -607913049#1 -33701981#1 -1132084803 -204664620 -530904591#1 -89141963#1 530903390 204661931 41084260 4805456#0 142304939#0 142304939#1 569325185 51348158 51344147 51470082 701858643 32278426 257237951 50638676 294323347 294323346 90004149#0 429114143#0 90004126 345337119 -27410389#1 -4721156#1 4483780 28682733 50480412 -656591301 -429114142#1 -429114142#0 -31261712#1 -31261712#0 -4592591#1 -192236405#2 1139084789#0 1139084789#2 4803425 -683609958#3 -683609958#2 -683609958#1 -683609958#0 -371342811#1 4803465#0 4803466#0 1169703852 44906779#0 44906779#1 298496090 27433876#0 27433876#1 1169703853 -70748314#1 -26154816 -26154817 -15218556#4 -15218556#2 -15218556#1 -1282935997#2 -1282935997#0 207123543 207123540 1259390768 817922724#1 1374699303 14478528 546118559 546118553 546118547#0 546118547#2 546118536 422926694 546118524#0 -821346718#1 -374274150#1 -374274150#0 -1300991363#0 -165345716#2 505081209 516425048#1"/>
    </vehicle>
    <vehicle id="42" depart="52.50">
        <route edges="9884071#1 441584664#1 441584664#2 441584663#0 441584663#1 441584663#2 -26634496#1 -30474150 525176571 -525176579 -568509933#1 515023093 850995022 515023101 558630436 -568227903 -558630438 515023094 30481348#0 30481348#1 28984745 558630458 1210776823 1210778513 -55155499 -10596127#1 28567647#0 536823977 561297487 -536826949#1 -536836676 -1210783332 -35275929#1 -174693504#2 -1210782730 -1210782731 -174693506#1 -174694073#3 -174694073#2 -174694073#1 -174694073#0 -8105822#1 27992887#0 368819709#0 368819709#1 368819709#3 131572397#0 90082034 1350859696 371162145#0 1163354923 362892919 385873746#1 385873746#2 381190531#0 381190531#1 381190531#2 550657241 38255459 1167100906#0 533566033#0 32391477#0 4730804 29188369 23167504#0 313463919 536837427 143738525 536844180 143738524 218455027 1273201169 26154765#0 -5881719 -1212260394 583730162 73848804#0 73848804#1 73848804#2 73848804#4 73848804#6 73848804#7 73848804#8 73848804#9 -1282935997#2 -1282935997#0 207123543 207123540 207123541 28682950 23619752#0 -150477619#1"/>
    </vehicle>
    <vehicle id="43" depart="53.75">