<?xml version="1.0" encoding="UTF-8"?>

<!-- generated on 2026-04-13 12:06:00.885743 by randomTrips.py v1_24_0+0000-b72eb3fabc8
<configuration>
    <net-file value="results\zurich\zurich.net.xml"/>
    <output-trip-file value="temp_urban_trips.xml"/>
    <remove-loops value="True"/>
    <end value="5000.0"/>
    <period value="1.25"/>
</configuration>
-->

<routes xmlns:xsi="http://www.w3.org/2001/XMLSchema-instance" xsi:noNamespaceSchemaLocation="http://sumo.dlr.de/xsd/routes_file.xsd">
    <trip id="0" depart="0.00" from="30437972" to="-11420576#1"/>
    <trip id="1" depart="1.25" from="-556286307" to="-521162270"/>
    <trip id="2" depart="2.50" from="44353652#1" to="37973365"/>
    <trip id="3" depart="3.75" from="5880398#2" to="-148476132#1"/>
    <trip id="4" depart="5.00" from="11524017" to="-1163544455#1"/>
    <trip id="5" depart="6.25" from="-447860929#1" to="14942144"/>
    <trip id="6" depart="7.50" from="-11419255" to="-44354801#0"/>
    <trip id="7" depart="8.75" from="31573971" to="193711507#3"/>
    <trip id="8" depart="10.00" from="-4495333#0" to="26646072"/>
    <trip id="9" depart="11.25" from="536908725" to="-1056324193#0"/>
    <trip id="10" depart="12.50" from="536753075" to="40535369"/>
    <trip id="11" depart="13.75" from="-791130340" to="-31785331#1"/>
    <trip id="12" depart="15.00" from="83545871" to="-89609601"/>
    <trip id="13" depart="16.25" from="-146778074#1" to="-15269029"/>
    <trip id="14" depart="17.50" from="536826452#3" to="4479836#0"/>
    <trip id="15" depart="18.75" from="15218472" to="882312130#1"/>
    <trip id="16" depart="20.00" from="-968727971" to="207123542"/>
    <trip id="17" depart="21.25" from="548338017" to="29188368"/>
    <trip id="18" depart="22.50" from="565569087" to="24804508#1"/>
    <trip id="19" depart="23.75" from="398028002#0" to="-1210776822"/>
    <trip id="20" depart="25.00" from="-4743769#1" to="-593797062"/>
    <trip id="21" depart="26.25" from="-13872230#0" to="-536824257#1"/>
    <trip id="22" depart="27.50" from="-149584089" to="-577305652#1"/>
    <trip id="23" depart="28.75" from="293285775" to="1059553010"/>
    <trip id="24" depart="30.00" from="-9347845#1" to="-4803403"/>
    <trip id="25" depart="31.25" from="-547917171" to="79560725#2"/>
    <trip id="26" depart="32.50" from="313458176#0" to="28642890#0"/>
    <trip id="27" depart="33.75" from="-320778226" to="44794878#1"/>
    <trip id="28" depart="35.00" from="-30473367" to="1120617075"/>
    <trip id="29" depart="36.25" from="9532404" to="32278537"/>
    <trip id="30" depart="37.50" from="181364918#0" to="38805866"/>
    <trip id="31" depart="38.75" from="555161515" to="517546995#0"/>
    <trip id="32" depart="40.00" from="-47609450#0" to="-11661529"/>
    <trip id="33" depart="41.25" from="-592638622" to="-567855066#1"/>
    <trip id="34" depart="42.50" from="-429114141#6" to="8143668#0"/>
    <trip id="35" depart="43.75" from="575246677" to="-8041013#0"/>
    <trip id="36" depart="45.00" from="32928276" to="1157448270"/>
    <trip id="37" depart="46.25" from="623571881" to="1364281503"/>
    <trip id="38" depart="47.50" from="-546093815" to="-551608316#1"/>
    <trip id="39" depart="48.75" from="190714063" to="-564390793#0"/>
    <trip id="40" depart="50.00" from="24043220" to="594594197"/>
    <trip id="41" depart="51.25" from="10689326#4" to="-516425048#1"/>
    <trip id="42" depart="52.50" from="9884071#1" to="150477619#1"/>
    <trip id="43" depart="53.75" from="-1454414739#0" to="-1212894646#0"/>
    <trip id="44" depart="55.00" from="-154567626" to="30620805#1"/>
    <trip id="45" depart="56.25" from="521460742#1" to="12091233"/>
    <trip id="46" depart="57.50" from="-128027782#0" to="112168955"/>
    <trip id="47" depart="58.75" from="975977035" to="165345714#0"/>
    <trip id="48" depart="60.00" from="863885135#0" to="566728841#0"/>
    <trip id="49" depart="61.25" from="-10677624#0" to="437752159"/>
    <trip id="50" depart="62.50" from="373370449#1" to="179425262"/>
    <trip id="51" depart="63.75" from="-547917166" to="32434209"/>
    <trip id="52" depart="65.00" from="-15675699" to="1235466090"/>
    <trip id="53" depart="66.25" from="12124048" to="830325377#0"/>
    <trip id="54" depart="67.50" from="575246648" to="-564738739"/>
    <trip id="55" depart="68.75" from="14187186" to="-39297670#3"/>
    <trip id="56" depart="70.00" from="622318309" to="574500417#0"/>
    <trip id="57" depart="71.25" from="-575246648" to="32140596"/>
    <trip id="58" depart="72.50" from="271828350#1" to="-311957345#0"/>
    <trip id="59" depart="73.75" from="511497635" to="167668068#2"/>
    <trip id="60" depart="75.00" from="-10119279#1" to="-83485395#1"/>
    <trip id="61" depart="76.25" from="-1117202247#0" to="74165122#4"/>
    <trip id="62" depart="77.50" from="575764243" to="551944007#0"/>
    <trip id="63" depart="78.75" from="-581954160" to="-1293472141"/>
    <trip id="64" depart="80.00" from="575729641" to="818847695#1"/>
    <trip id="65" depart="81.25" from="-1421336645#0" to="14389891#0"/>
    <trip id="66" depart="82.50" from="-1337683122" to="504254096"/>
    <trip id="67" depart="83.75" from="50003684#0" to="-26154691#0"/>
    <trip id="68" depart="85.00" from="1317599359" to="204661932"/>
    <trip id="69" depart="86.25" from="-546093817#0" to="575246675"/>
    <trip id="70" depart="87.50" from="1157438929" to="-490869059#0"/>
    <trip id="71" depart="88.75" from="15272548" to="4480946"/>
    <trip id="72" depart="90.00" from="-405659393#1" to="-780218968#1"/>
    <trip id="73" depart="91.25" from="970327543" to="33557790"/>
    <trip id="74" depart="92.50" from="1189352199#1" to="152405841"/>
    <trip id="75" depart="93.75" from="-187700719#7" to="-523771831#1"/>
    <trip id="76" depart="95.00" from="-75470557#1" to="26645783#1"/>
    <trip id="77" depart="96.25" from="-4803465#2" to="-517995970"/>
    <trip id="78" depart="97.50" from="-135475994" to="31009372#1"/>
    <trip id="79" depart="98.75" from="-47609444" to="606969557"/>
    <trip id="80" depart="100.00" from="564390777#2" to="-13870863"/>
    <trip id="81" depart="101.25" from="-50993196" to="371721856#1"/>
    <trip id="82" depart="102.50" from="-434982522#0" to="-27293443"/>
    <trip id="83" depart="103.75" from="76280862#0" to="24385237#1"/>
    <trip id="84" depart="105.00" from="1306205463" to="521436340"/>
    <trip id="85" depart="106.25" from="536836676" to="-422926695#2"/>
    <trip id="86" depart="107.50" from="-148476140#0" to="12180461"/>
    <trip id="87" depart="108.75" from="1157468296" to="13862675"/>
    <trip id="88" depart="110.00" from="437491106" to="377211840"/>
    <trip id="89" depart="111.25" from="9386299" to="-15388361#0"/>
    <trip id="90" depart="112.50" from="107959872" to="-91655659"/>
    <trip id="91" depart="113.75" from="565569087" to="-552831844"/>
    <trip id="92" depart="115.00" from="-37842537" to="1305585323#3"/>
    <trip id="93" depart="116.25" from="11523916" to="-577791914"/>
    <trip id="94" depart="117.50" from="-528680262#0" to="70748324#0"/>
    <trip id="95" depart="118.75" from="1193523318#1" to="566728849#0"/>
    <trip id="96" depart="120.00" from="169980642" to="-1229649936"/>
    <trip id="97" depart="121.25" from="9938260#1" to="552831866"/>
    <trip id="98" depart="122.50" from="86145639#2" to="723096199"/>
    <trip id="99" depart="123.75" from="558664520#3" to="-34859773"/>
    <trip id="100" depart="125.00" from="137477254#1" to="-505081212"/>
    <trip id="101" depart="126.25" from="10698264" to="-1305368071#0"/>
    <trip id="102" depart="127.50" from="-97214946" to="942285780"/>
    <trip id="103" depart="128.75" from="-546093817#2" to="521240513#1"/>
    <trip id="104" depart="130.00" from="12161999#0" to="12100189#1"/>
    <trip id="105" depart="131.25" from="83601533" to="970622414"/>
    <trip id="106" depart="132.50" from="179097890#0" to="434329533"/>
    <trip id="107" depart="133.75" from="-28682845#0" to="-620615183"/>
    <trip id="108" depart="135.00" from="86145635" to="25210255#0"/>
    <trip id="109" depart="136.25" from="15504820#2" to="4743593"/>
    <trip id="110" depart="137.50" from="-1232692287" to="25983496"/>
    <trip id="111" depart="138.75" from="1421090666#2" to="563664968"/>
    <trip id="112" depart="140.00" from="-28818210#1" to="8420648#1"/>
    <trip id="113" depart="141.25" from="-13872349#0" to="-41217428"/>
    <trip id="114" depart="142.50" from="24804509#1" to="37839665#1"/>
    <trip id="115" depart="143.75" from="-5068112#0" to="-23619702"/>
    <trip id="116" depart="145.00" from="5880364" to="-551260112"/>
    <trip id="117" depart="146.25" from="24773184" to="29215866"/>
    <trip id="118" depart="147.50" from="11420576#0" to="25951238"/>
    <trip id="119" depart="148.75" from="-41217429#0" to="43394234#1"/>
    <trip id="120" depart="150.00" from="-51272200#2" to="1157448272#2"/>
    <trip id="121" depart="151.25" from="34859773" to="-66319629"/>
    <trip id="122" depart="152.50" from="-5937146" to="4803415#1"/>
    <trip id="123" depart="153.75" from="-136125428" to="136125313#0"/>
    <trip id="124" depart="155.00" from="9935272#2" to="975977035"/>
    <trip id="125" depart="156.25" from="-1366015774#1" to="-501215237"/>
    <trip id="126" depart="157.50" from="-546093817#2" to="77079364"/>
    <trip id="127" depart="158.75" from="576794197#0" to="577392813#1"/>
    <trip id="128" depart="160.00" from="-923081303" to="-330403834"/>
    <trip id="129" depart="161.25" from="550432834#0" to="41223812"/>
    <trip id="130" depart="162.50" from="27411577" to="9509504"/>
    <trip id="131" depart="163.75" from="32397787" to="-10595011#3"/>
    <trip id="132" depart="165.00" from="54189833" to="-64440161#1"/>
    <trip id="133" depart="166.25" from="33695402#0" to="8041011"/>
    <trip id="134" depart="167.50" from="-24064833#1" to="-207681379"/>
    <trip id="135" depart="168.75" from="-15268380" to="207683800"/>
    <trip id="136" depart="170.00" from="-552409669#0" to="28420432"/>
    <trip id="137" depart="171.25" from="41737282" to="-45156949#0"/>
    <trip id="138" depart="172.50" from="29219530#0" to="-564954793"/>
    <trip id="139" depart="173.75" from="138424035#0" to="606969556"/>
    <trip id="140" depart="175.00" from="558245732#1" to="-15052926#0"/>
    <trip id="141" depart="176.25" from="1157468296" to="-576471543#1"/>
    <trip id="142" depart="177.50" from="-1026119584" to="511511809#2"/>
    <trip id="143" depart="178.75" from="295790185#0" to="-564038054#0"/>
    <trip id="144" depart="180.00" from="4495263" to="207098958"/>
    <trip id="145" depart="181.25" from="1163566969#0" to="-10596298"/>
    <trip id="146" depart="182.50" from="-13797527" to="581291509#0"/>
    <trip id="147" depart="183.75" from="601313594#2" to="194211723"/>
    <trip id="148" depart="185.00" from="550676055#1" to="25942714#0"/>
    <trip id="149" depart="186.25" from="-27467625#0" to="-25942605#0"/>
    <trip id="150" depart="187.50" from="-582263963" to="596514114#1"/>
    <trip id="151" depart="188.75" from="525176571" to="566728841#0"/>
    <trip id="152" depart="190.00" from="5940417" to="-4803428#1"/>
    <trip id="153" depart="191.25" from="-526789821" to="-164974564#1"/>
    <trip id="154" depart="192.50" from="51344153#0" to="582263963"/>
    <trip id="155" depart="193.75" from="1112243417" to="293178579#0"/>
    <trip id="156" depart="195.00" from="-28672923" to="745075214"/>
    <trip id="157" depart="196.25" from="566728819#0" to="90062588#0"/>
    <trip id="158" depart="197.50" from="537731474" to="578505912#0"/>
    <trip id="159" depart="198.75" from="-1136716354" to="45156941"/>
    <trip id="160" depart="200.00" from="-706159405" to="75528934"/>
    <trip id="161" depart="201.25" from="530969936#6" to="568227929"/>
    <trip id="162" depart="202.50" from="537731474" to="-566728861#0"/>
    <trip id="163" depart="203.75" from="5197828" to="-182071993"/>
    <trip id="164" depart="205.00" from="572394516" to="566100297#3"/>
    <trip id="165" depart="206.25" from="-45156938" to="545985114"/>
    <trip id="166" depart="207.50" from="12368770#1" to="-70748311#1"/>
    <trip id="167" depart="208.75" from="524395739#0" to="-528898236#0"/>
    <trip id="168" depart="210.00" from="-113568240#1" to="-43394239"/>
    <trip id="169" depart="211.25" from="-656591301" to="568267268#1"/>
    <trip id="170" depart="212.50" from="852138907#0" to="-578164249#1"/>
    <trip id="171" depart="213.75" from="30481452#0" to="1163561074#0"/>
    <trip id="172" depart="215.00" from="913835101" to="174694073#2"/>
    <trip id="173" depart="216.25" from="79560725#0" to="-207126539#0"/>
    <trip id="174" depart="217.50" from="863251168" to="-39297670#3"/>
    <trip id="175" depart="218.75" from="8420648#1" to="-566218728"/>
    <trip id="176" depart="220.00" from="-15272600#1" to="12347253"/>
    <trip id="177" depart="221.25" from="43566484#2" to="-8031688#1"/>
    <trip id="178" depart="222.50" from="26646052" to="150995104"/>
    <trip id="179" depart="223.75" from="10212718#0" to="24735484"/>
    <trip id="180" depart="225.00" from="-536756111" to="41737283#0"/>
    <trip id="181" depart="226.25" from="-10211791" to="720178329"/>
    <trip id="182" depart="227.50" from="15269029" to="43525659"/>
    <trip id="183" depart="228.75" from="4495268" to="374274150#1"/>
    <trip id="184" depart="230.00" from="-8766617#3" to="-13864072#0"/>
    <trip id="185" depart="231.25" from="33697498#1" to="-855557607#1"/>
    <trip id="186" depart="232.50" from="-591624332" to="561550741#0"/>
    <trip id="187" depart="233.75" from="422991319#1" to="-66860050#0"/>
    <trip id="188" depart="235.00" from="-5847838#0" to="117555703"/>
    <trip id="189" depart="236.25" from="107959851#0" to="-610819290#1"/>
    <trip id="190" depart="237.50" from="-208800979#2" to="1207089551#0"/>
    <trip id="191" depart="238.75" from="8030441" to="380779282"/>
    <trip id="192" depart="240.00" from="5989252" to="28881297"/>
    <trip id="193" depart="241.25" from="-575729640" to="198488290#0"/>
    <trip id="194" depart="242.50" from="-10115087" to="-590532046"/>
    <trip id="195" depart="243.75" from="325418560" to="1384314608#0"/>
    <trip id="196" depart="245.00" from="11917566" to="-505081212"/>
    <trip id="197" depart="246.25" from="525169289" to="-368504820#1"/>
    <trip id="198" depart="247.50" from="-14188614" to="15218470"/>
    <trip id="199" depart="248.75" from="29187759" to="-877620429#1"/>
    <trip id="200" depart="250.00" from="542740878" to="4799417#0"/>
    <trip id="201" depart="251.25" from="35162766" to="-523771830"/>
    <trip id="202" depart="252.50" from="-3995297#2" to="-11419346#0"/>
    <trip id="203" depart="253.75" from="-52087671#0" to="13955367"/>
    <trip id="204" depart="255.00" from="559462252#0" to="-1388973300"/>
    <trip id="205" depart="256.25" from="113568243" to="30875945"/>
    <trip id="206" depart="257.50" from="-38902668" to="40253873#1"/>
    <trip id="207" depart="258.75" from="13872721" to="-548338020"/>
    <trip id="208" depart="260.00" from="330207016" to="-1052070762#2"/>
    <trip id="209" depart="261.25" from="461211028" to="50993194#0"/>
    <trip id="210" depart="262.50" from="-15220016" to="1210782681"/>
    <trip id="211" depart="263.75" from="-33392935" to="84083633#0"/>
    <trip id="212" depart="265.00" from="146778067" to="-1227184777#0"/>
    <trip id="213" depart="266.25" from="-525958027#1" to="561561681"/>
    <trip id="214" depart="267.50" from="12210759" to="536826452#5"/>
    <trip id="215" depart="268.75" from="33859440#2" to="9509633#2"/>
    <trip id="216" depart="270.00" from="248669682#0" to="823540207"/>
    <trip id="217" depart="271.25" from="5880392#0" to="28802196"/>
    <trip id="218" depart="272.50" from="42163436" to="14937872"/>
    <trip id="219" depart="273.75" from="548370037#0" to="198481170#4"/>
    <trip id="220" depart="275.00" from="592638622" to="4622096#1"/>
    <trip id="221" depart="276.25" from="131569033" to="-562238311"/>
    <trip id="222" depart="277.50" from="-524311713" to="31857349#0"/>
    <trip id="223" depart="278.75" from="499921705" to="15458938"/>
    <trip id="224" depart="280.00" from="28684461" to="-575598511#0"/>
    <trip id="225" depart="281.25" from="-13862676" to="-5881717#0"/>
    <trip id="226" depart="282.50" from="-552409658#0" to="-820432617"/>
    <trip id="227" depart="283.75" from="15274408#1" to="-285303232#1"/>
    <trip id="228" depart="285.00" from="-4852528" to="39762660#0"/>
    <trip id="229" depart="286.25" from="40255549#1" to="-136094560"/>
    <trip id="230" depart="287.50" from="1120617073" to="189483998"/>
    <trip id="231" depart="288.75" from="1137244529" to="-4622111"/>
    <trip id="232" depart="290.00" from="11488247" to="606145411#0"/>
    <trip id="233" depart="291.25" from="239547641" to="401789570"/>
    <trip id="234" depart="292.50" from="563070482" to="5068116"/>
    <trip id="235" depart="293.75" from="1007827862" to="-1053870623#1"/>
    <trip id="236" depart="295.00" from="-82955607#0" to="4803528"/>
    <trip id="237" depart="296.25" from="561809510#1" to="82955609"/>
    <trip id="238" depart="297.50" from="11420417#0" to="4730818"/>
    <trip id="239" depart="298.75" from="159977164#0" to="28368812"/>
    <trip id="240" depart="300.00" from="-4495333#1" to="-516425063"/>
    <trip id="241" depart="301.25" from="117560650" to="-1163290135#1"/>
    <trip id="242" depart="302.50" from="-73848805#1" to="38148167"/>
    <trip id="243" depart="303.75" from="1098892318" to="-33998799"/>
    <trip id="244" depart="305.00" from="128027782#1" to="-25946607#1"/>
    <trip id="245" depart="306.25" from="285303239" to="-1157050186"/>
    <trip id="246" depart="307.50" from="10595561" to="23644733"/>
    <trip id="247" depart="308.75" from="-11420417#0" to="330207017"/>
    <trip id="248" depart="310.00" from="-24444656" to="137264990"/>
    <trip id="249" depart="311.25" from="-1210782730" to="11163361"/>
    <trip id="250" depart="312.50" from="-43054226#0" to="-8420649#3"/>
    <trip id="251" depart="313.75" from="4803465#0" to="1117202247#1"/>
    <trip id="252" depart="315.00" from="4622089" to="552169910"/>
    <trip id="253" depart="316.25" from="-533168794#1" to="-1454414738"/>
    <trip id="254" depart="317.50" from="99768618#0" to="-9938158#0"/>
    <trip id="255" depart="318.75" from="31715548#1" to="519927775#0"/>
    <trip id="256" depart="320.00" from="32041768#0" to="4805459#2"/>
    <trip id="257" depart="321.25" from="818847698" to="-447860929#1"/>
    <trip id="258" depart="322.50" from="-1121256648" to="-31020659"/>
    <trip id="259" depart="323.75" from="-206631237" to="372798715#1"/>
    <trip id="260" depart="325.00" from="194208775#0" to="-511511807#1"/>
    <trip id="261" depart="326.25" from="39023162" to="5074037#3"/>
    <trip id="262" depart="327.50" from="-31235230" to="285303244"/>
    <trip id="263" depart="328.75" from="454907785" to="-206574013#0"/>
    <trip id="264" depart="330.00" from="543499813" to="84529629#0"/>
    <trip id="265" depart="331.25" from="-15272530#1" to="-11488839#0"/>
    <trip id="266" depart="332.50" from="-5880400" to="380780292"/>
    <trip id="267" depart="333.75" from="840187850#1" to="1159984430"/>
    <trip id="268" depart="335.00" from="41496766#1" to="-14187603#1"/>
    <trip id="269" depart="336.25" from="381223036#0" to="30612445#2"/>
    <trip id="270" depart="337.50" from="-149868469" to="515023093"/>
    <trip id="271" depart="338.75" from="560041131#0" to="28055027"/>
    <trip id="272" depart="340.00" from="-187700719#7" to="9386968#0"/>
    <trip id="273" depart="341.25" from="516842461#0" to="-967857334#2"/>
    <trip id="274" depart="342.50" from="1163834556" to="10689326#2"/>
    <trip id="275" depart="343.75" from="1434556822" to="-9388664#0"/>
    <trip id="276" depart="345.00" from="559462249" to="547917170"/>
    <trip id="277" depart="346.25" from="-15218464" to="8420648#1"/>
    <trip id="278" depart="347.50" from="293260143#0" to="550432841#0"/>
    <trip id="279" depart="348.75" from="40268978#1" to="12368770#1"/>
    <trip id="280" depart="350.00" from="4393002#1" to="852138907#0"/>
    <trip id="281" depart="351.25" from="-55155499" to="53910075"/>
    <trip id="282" depart="352.50" from="152419232#0" to="14358150"/>
    <trip id="283" depart="353.75" from="1173182164" to="4483989"/>
    <trip id="284" depart="355.00" from="-548917390" to="563070467#1"/>
    <trip id="285" depart="356.25" from="548372838#0" to="-148091070"/>
    <trip id="286" depart="357.50" from="576862392" to="-548338019"/>
    <trip id="287" depart="358.75" from="12618874#0" to="28674460#1"/>
    <trip id="288" depart="360.00" from="-97214946" to="-1161025299#0"/>
    <trip id="289" depart="361.25" from="560330502" to="-40231727"/>
    <trip id="290" depart="362.50" from="-43128188" to="533775756#0"/>
    <trip id="291" depart="363.75" from="-791130340" to="578164246"/>
    <trip id="292" depart="365.00" from="39297670#5" to="-576429033#1"/>
    <trip id="293" depart="366.25" from="-10595923" to="818858242#0"/>
    <trip id="294" depart="367.50" from="-1421336645#0" to="4370800"/>
    <trip id="295" depart="368.75" from="138424035#1" to="500735201"/>
    <trip id="296" depart="370.00" from="381223036#0" to="332455382#1"/>
    <trip id="297" depart="371.25" from="13863761" to="527481485"/>
    <trip id="298" depart="372.50" from="-147161798#1" to="-5197796"/>
    <trip id="299" depart="373.75" from="38254642#0" to="-708025133#1"/>
    <trip id="300" depart="375.00" from="23637552" to="13949328"/>
    <trip id="301" depart="376.25" from="15090675" to="1210783364"/>
    <trip id="302" depart="377.50" from="4527091" to="-860373106#0"/>
    <trip id="303" depart="378.75" from="39517041" to="-5736332"/>
    <trip id="304" depart="380.00" from="-530969936#5" to="-23659049"/>
    <trip id="305" depart="381.25" from="-38805746" to="-23318289#0"/>
    <trip id="306" depart="382.50" from="15218383#5" to="506241506#1"/>
    <trip id="307" depart="383.75" from="-368132344#2" to="-5074037#3"/>
    <trip id="308" depart="385.00" from="1366269171" to="4393001#1"/>
    <trip id="309" depart="386.25" from="90004156" to="15733469#0"/>
    <trip id="310" depart="387.50" from="-561809525" to="-15677510#0"/>
    <trip id="311" depart="388.75" from="-38893623" to="-528680262#0"/>
    <trip id="312" depart="390.00" from="-33772993#2" to="-1085548014"/>
    <trip id="313" depart="391.25" from="152001416" to="-575590134"/>
    <trip id="314" depart="392.50" from="886502661" to="208143937"/>
    <trip id="315" depart="393.75" from="38867855" to="-24991049"/>
    <trip id="316" depart="395.00" from="568227929" to="14506118"/>
    <trip id="317" depart="396.25" from="573224076#0" to="24596905"/>
    <trip id="318" depart="397.50" from="129085450" to="12618874#1"/>
    <trip id="319" depart="398.75" from="-36724391#2" to="-123288237#1"/>
    <trip id="320" depart="400.00" from="8031763#0" to="14186705#2"/>
    <trip id="321" depart="401.25" from="545985121#0" to="1163818787"/>
    <trip id="322" depart="402.50" from="-1366269194" to="308074667"/>
    <trip id="323" depart="403.75" from="-12164804" to="-30451058"/>
    <trip id="324" depart="405.00" from="192146197#0" to="-703414609#0"/>
    <trip id="325" depart="406.25" from="96846108" to="-23012897"/>
    <trip id="326" depart="407.50" from="49600616#1" to="284686655"/>
    <trip id="327" depart="408.75" from="521162271" to="-525169203"/>
    <trip id="328" depart="410.00" from="148067677#1" to="131569031#3"/>
    <trip id="329" depart="411.25" from="1192123247" to="566728816"/>
    <trip id="330" depart="412.50" from="954383901#2" to="-70748322"/>
    <trip id="331" depart="413.75" from="284686649" to="28672890#0"/>
    <trip id="332" depart="415.00" from="4483941#0" to="818847700#2"/>
    <trip id="333" depart="416.25" from="-41712985" to="-4803560#0"/>
    <trip id="334" depart="417.50" from="33391817" to="-325418561#4"/>
    <trip id="335" depart="418.75" from="-33146358" to="-1411243431"/>
    <trip id="336" depart="420.00" from="-10212256#0" to="131569031#3"/>
    <trip id="337" depart="421.25" from="24701208#0" to="-5944815#1"/>
    <trip id="338" depart="422.50" from="-488736536#1" to="41702260#0"/>
    <trip id="339" depart="423.75" from="395173266" to="134706866"/>
    <trip id="340" depart="425.00" from="37839671#2" to="708025131#0"/>
    <trip id="341" depart="426.25" from="5197904#1" to="30450873#0"/>
    <trip id="342" depart="427.50" from="334810149#0" to="772925677"/>
    <trip id="343" depart="428.75" from="1160603568" to="192236405#0"/>
    <trip id="344" depart="430.00" from="31261712#1" to="618449786#1"/>
    <trip id="345" depart="431.25" from="547889789#0" to="-13871188#1"/>
    <trip id="346" depart="432.50" from="-30989387" to="-73848804#3"/>
    <trip id="347" depart="433.75" from="4558440#2" to="24232453"/>
    <trip id="348" depart="435.00" from="-564954793" to="-24586239#0"/>
    <trip id="349" depart="436.25" from="38028807" to="40755626#0"/>
    <trip id="350" depart="437.50" from="80778141#1" to="148091070"/>
    <trip id="351" depart="438.75" from="13872234" to="-14506020#0"/>
    <trip id="352" depart="440.00" from="-118641211" to="122305202"/>
    <trip id="353" depart="441.25" from="-60501242" to="-554029744"/>
    <trip id="354" depart="442.50" from="-1457790807" to="84223354#1"/>
    <trip id="355" depart="443.75" from="551563332#0" to="24669167"/>
    <trip id="356" depart="445.00" from="82086620" to="9938319#2"/>
    <trip id="357" depart="446.25" from="349860894" to="-571334133"/>
    <trip id="358" depart="447.50" from="-1189352199#1" to="496519144#1"/>
    <trip id="359" depart="448.75" from="1303164756" to="33696469"/>
    <trip id="360" depart="450.00" from="6275392" to="-3995297#5"/>
    <trip id="361" depart="451.25" from="24150898" to="313465295#1"/>
    <trip id="362" depart="452.50" from="13870600" to="-149631057"/>
    <trip id="363" depart="453.75" from="-818847704" to="-863251167#1"/>
    <trip id="364" depart="455.00" from="34614539" to="565569090#3"/>
    <trip id="365" depart="456.25" from="-683609958#2" to="39599176"/>
    <trip id="366" depart="457.50" from="-564738748" to="8163506#0"/>
    <trip id="367" depart="458.75" from="538990028" to="204664620"/>
    <trip id="368" depart="460.00" from="1214974394#3" to="-8040788#0"/>
    <trip id="369" depart="461.25" from="-608962774#1" to="863885135#0"/>
    <trip id="370" depart="462.50" from="1094210355#1" to="15218383#0"/>
    <trip id="371" depart="463.75" from="9509559#4" to="34307772"/>
    <trip id="372" depart="465.00" from="15505169" to="11912230#0"/>
    <trip id="373" depart="466.25" from="4734974" to="30473367"/>
    <trip id="374" depart="467.50" from="4803410" to="-45156949#0"/>
    <trip id="375" depart="468.75" from="167106108" to="73848804#7"/>
    <trip id="376" depart="470.00" from="1189352199#1" to="40535370#0"/>
    <trip id="377" depart="471.25" from="-188708009" to="88343070#1"/>
    <trip id="378" depart="472.50" from="271828350#0" to="-541012899"/>
    <trip id="379" depart="473.75" from="-28951907" to="206574016"/>
    <trip id="380" depart="475.00" from="172063131#0" to="-150995111"/>
    <trip id="381" depart="476.25" from="965587138" to="6275390"/>
    <trip id="382" depart="477.50" from="12411202#2" to="-218971860#1"/>
    <trip id="383" depart="478.75" from="549020386#0" to="147636160"/>
    <trip id="384" depart="480.00" from="41713159#0" to="150091892#0"/>
    <trip id="385" depart="481.25" from="-552831868" to="552831844"/>
    <trip id="386" depart="482.50" from="911511071#0" to="-548134661"/>
    <trip id="387" depart="483.75" from="171943679" to="1126514904"/>
    <trip id="388" depart="485.00" from="69184467#0" to="149868372"/>
    <trip id="389" depart="486.25" from="576360701" to="568227929"/>
    <trip id="390" depart="487.50" from="-557366233" to="525359513#1"/>
    <trip id="391" depart="488.75" from="1136478760#0" to="780218960#1"/>
    <trip id="392" depart="490.00" from="14379153" to="546792880"/>
    <trip id="393" depart="491.25" from="-561561665" to="-6275379"/>
    <trip id="394" depart="492.50" from="24232453" to="9938219#1"/>
    <trip id="395" depart="493.75" from="13856823#0" to="-304140432#0"/>
    <trip id="396" depart="495.00" from="15269704#1" to="-95474067#1"/>
    <trip id="397" depart="496.25" from="172058385" to="191467051"/>
    <trip id="398" depart="497.50" from="12164382#0" to="-824639175#0"/>
    <trip id="399" depart="498.75" from="-377260838" to="403112001#1"/>
    <trip id="400" depart="500.00" from="207683800" to="-536836677#1"/>
    <trip id="401" depart="501.25" from="5074054" to="-1208493270"/>
    <trip id="402" depart="502.50" from="45150332" to="41276562#5"/>
    <trip id="403" depart="503.75" from="537731504" to="113568240#2"/>
    <trip id="404" depart="505.00" from="33696607" to="546792882"/>
    <trip id="405" depart="506.25" from="91360436#1" to="1466239132#1"/>
    <trip id="406" depart="507.50" from="-1168931401#1" to="14851504"/>
    <trip id="407" depart="508.75" from="24574783#1" to="574393279"/>
    <trip id="408" depart="510.00" from="574500415#1" to="126141564#1"/>
    <trip id="409" depart="511.25" from="14937936" to="136032972#0"/>
    <trip id="410" depart="512.50" from="43067652" to="11788671#1"/>
    <trip id="411" depart="513.75" from="325418561#0" to="-31539007#0"/>
    <trip id="412" depart="515.00" from="1293472141" to="863158469"/>
    <trip id="413" depart="516.25" from="-760873574#1" to="395173266"/>
    <trip id="414" depart="517.50" from="31573971" to="563070467#1"/>
    <trip id="415" depart="518.75" from="561297525" to="566218728"/>
    <trip id="416" depart="520.00" from="-9938319#1" to="-8147563#1"/>
    <trip id="417" depart="521.25" from="420623847" to="501617855"/>
    <trip id="418" depart="522.50" from="572472174#0" to="-1173257217"/>