<?xml version="1.0" encoding="UTF-8"?>

<!-- generated on 2026-04-09 09:02:25.093728 by randomTrips.py v1_24_0+0000-b72eb3fabc8
<configuration>
    <net-file value="results\zurich\zurich.net.xml"/>
    <output-trip-file value="temp_trips.xml"/>
    <route-file value="results\zurich\zurich.rou.xml"/>
    <fringe-factor value="10"/>
    <remove-loops value="True"/>
    <period value="0.36"/>
</configuration>
-->

<routes xmlns:xsi="http://www.w3.org/2001/XMLSchema-instance" xsi:noNamespaceSchemaLocation="http://sumo.dlr.de/xsd/routes_file.xsd">
    <trip id="0" depart="0.00" from="150995092" to="-11489036#0"/>
    <trip id="1" depart="0.36" from="-38806553#0" to="-521669305#0"/>
    <trip id="2" depart="0.72" from="31785331#0" to="33701981#0"/>
    <trip id="3" depart="1.08" from="564954789" to="-15055628"/>
    <trip id="4" depart="1.44" from="-575246668" to="-1163565847#1"/>
    <trip id="5" depart="1.80" from="-28311586" to="14849620"/>
    <trip id="6" depart="2.16" from="-1112243495" to="-4393001#1"/>
    <trip id="7" depart="2.52" from="15388467" to="170045672#0"/>
    <trip id="8" depart="2.88" from="-28567930" to="24669688"/>
    <trip id="9" depart="3.24" from="4498079#1" to="-10567987#0"/>
    <trip id="10" depart="3.60" from="4483815" to="38101625"/>
    <trip id="11" depart="3.96" from="-516425048#1" to="-31715548#0"/>
    <trip id="12" depart="4.32" from="80869417" to="-89614475#1"/>
    <trip id="13" depart="4.68" from="-128840098" to="-15458789#0"/>
    <trip id="14" depart="5.04" from="527481482" to="26637371"/>
    <trip id="15" depart="5.40" from="44906779#0" to="41084260"/>
    <trip id="16" depart="5.76" from="10621634" to="8766617#0"/>
    <trip id="17" depart="6.12" from="-546797694" to="186216916"/>
    <trip id="18" depart="6.48" from="505081212" to="27489473"/>
    <trip id="19" depart="6.84" from="541012895#0" to="23643844"/>
    <trip id="20" depart="7.20" from="26645468" to="-122223570#1"/>
    <trip id="21" depart="7.56" from="-29102877#1" to="-593797122"/>
    <trip id="22" depart="7.92" from="-1226154390" to="-536836677#1"/>
    <trip id="23" depart="8.28" from="-136033001" to="-576802239#0"/>
    <trip id="24" depart="8.64" from="14940054#0" to="10588380"/>
    <trip id="25" depart="9.00" from="-540275812" to="-4712462"/>
    <trip id="26" depart="9.36" from="-374688191#0" to="79549405"/>
    <trip id="27" depart="9.72" from="15272530#0" to="267813349"/>
    <trip id="28" depart="10.08" from="-182071991" to="40879468"/>
    <trip id="29" depart="10.44" from="-155248202" to="110450035#3"/>
    <trip id="30" depart="10.80" from="9509559#3" to="29547948"/>
    <trip id="31" depart="11.16" from="11489036#0" to="35286915"/>
    <trip id="32" depart="11.52" from="521343968#0" to="49152441"/>
    <trip id="33" depart="11.88" from="-293279770" to="-11661222#3"/>
    <trip id="34" depart="12.24" from="-4483940#3" to="-567855066#1"/>
    <trip id="35" depart="12.60" from="-26766423" to="808953715"/>
    <trip id="36" depart="12.96" from="552831846#1" to="-8031699#0"/>
    <trip id="37" depart="13.32" from="164974564#0" to="11555772#1"/>
    <trip id="38" depart="13.68" from="5880378" to="134807810"/>
    <trip id="39" depart="14.04" from="-371342811#1" to="-552409659"/>
    <trip id="40" depart="14.40" from="1161025299#1" to="-564390777#2"/>
    <trip id="41" depart="14.76" from="1233009637" to="5937146"/>
    <trip id="42" depart="15.12" from="-561561665" to="-51272200#2"/>
    <trip id="43" depart="15.48" from="9884071#1" to="14934992#1"/>
    <trip id="44" depart="15.84" from="-128027741" to="-122970112#0"/>
    <trip id="45" depart="16.20" from="-13872117#1" to="28660052"/>
    <trip id="46" depart="16.56" from="42878390" to="12090818"/>
    <trip id="47" depart="16.92" from="-12090573#1" to="1121145845"/>
    <trip id="48" depart="17.28" from="973070249" to="15270047"/>
    <trip id="49" depart="17.64" from="8420646#1" to="563070453#3"/>
    <trip id="50" depart="18.00" from="-10568057#0" to="3995297#2"/>
    <trip id="51" depart="18.36" from="23454697" to="15460086"/>
    <trip id="52" depart="18.72" from="-374541269" to="298496090"/>
    <trip id="53" depart="19.08" from="-13872740" to="1217178044"/>
    <trip id="54" depart="19.44" from="-60441003#1" to="82955609"/>
    <trip id="55" depart="19.80" from="552409664" to="-564738747"/>
    <trip id="56" depart="20.16" from="-860373105#0" to="-38806553#0"/>
    <trip id="57" depart="20.52" from="585714461" to="567839270"/>
    <trip id="58" depart="20.88" from="-41222880" to="293279770"/>
    <trip id="59" depart="21.24" from="13949352" to="-30964000#0"/>
    <trip id="60" depart="21.60" from="37692162#1" to="15677510#2"/>
    <trip id="61" depart="21.96" from="39763022#0" to="15270487"/>
    <trip id="62" depart="22.32" from="-10115087" to="-83485395#1"/>
    <trip id="63" depart="22.68" from="-10697240" to="72879073"/>
    <trip id="64" depart="23.04" from="554690765" to="542608497"/>
    <trip id="65" depart="23.40" from="-429114141#4" to="-136538171#0"/>
    <trip id="66" depart="23.76" from="553449271" to="8163495#1"/>
    <trip id="67" depart="24.12" from="-12411100" to="14371789"/>
    <trip id="68" depart="24.48" from="-1213411266" to="454907785"/>
    <trip id="69" depart="24.84" from="38093976" to="-248669678#0"/>
    <trip id="70" depart="25.20" from="-743679121" to="181364918#1"/>
    <trip id="71" depart="25.56" from="-372011862" to="569378524"/>
    <trip id="72" depart="25.92" from="-575268611" to="-4803405"/>
    <trip id="73" depart="26.28" from="10689955" to="41217426#2"/>
    <trip id="74" depart="26.64" from="-252880055" to="-750263777"/>
    <trip id="75" depart="27.00" from="970622412" to="30998840"/>
    <trip id="76" depart="27.36" from="-58697413" to="15052927"/>
    <trip id="77" depart="27.72" from="-143756158" to="-523771837"/>
    <trip id="78" depart="28.08" from="-5111033#2" to="24586454#2"/>
    <trip id="79" depart="28.44" from="-29547948" to="-517335658"/>
    <trip id="80" depart="28.80" from="-121520418" to="28802258"/>
    <trip id="81" depart="29.16" from="-293260142" to="60447874#0"/>
    <trip id="82" depart="29.52" from="53910075" to="-143756158"/>
    <trip id="83" depart="29.88" from="-31009372#1" to="33301816"/>
    <trip id="84" depart="30.24" from="-27390441" to="-26095370"/>
    <trip id="85" depart="30.60" from="64659700#0" to="227596610#0"/>
    <trip id="86" depart="30.96" from="-708073576" to="5079280"/>
    <trip id="87" depart="31.32" from="4495231" to="-41276559"/>
    <trip id="88" depart="31.68" from="-1324360868#1" to="12161999#2"/>
    <trip id="89" depart="32.04" from="-575268616#1" to="13862676"/>
    <trip id="90" depart="32.40" from="30442608#1" to="33393139"/>
    <trip id="91" depart="32.76" from="913906847" to="-15733505#0"/>
    <trip id="92" depart="33.12" from="-563159170" to="-91360433"/>
    <trip id="93" depart="33.48" from="541012895#0" to="-553296554"/>
    <trip id="94" depart="33.84" from="-23644642" to="128027783"/>
    <trip id="95" depart="34.20" from="-575246668" to="-577791895"/>
    <trip id="96" depart="34.56" from="-33146664" to="683609958#3"/>
    <trip id="97" depart="34.92" from="-590532050" to="563159170"/>
    <trip id="98" depart="35.28" from="11349424" to="-126895663#1"/>
    <trip id="99" depart="35.64" from="9938158#0" to="546118543#0"/>
    <trip id="100" depart="36.00" from="84083633#0" to="70732846"/>
    <trip id="101" depart="36.36" from="530012492" to="-33998799"/>
    <trip id="102" depart="36.72" from="-8163495#0" to="-4805459#1"/>
    <trip id="103" depart="37.08" from="-562767381#1" to="-136617339#1"/>
    <trip id="104" depart="37.44" from="-547889790#0" to="94808965"/>
    <trip id="105" depart="37.80" from="-372011863#1" to="5074558#0"/>
    <trip id="106" depart="38.16" from="-60499724" to="12091170"/>
    <trip id="107" depart="38.52" from="80869417" to="970327542"/>
    <trip id="108" depart="38.88" from="11487739" to="39546052"/>
    <trip id="109" depart="39.24" from="-15267616" to="-623571861"/>
    <trip id="110" depart="39.60" from="8406373#0" to="23649687"/>
    <trip id="111" depart="39.96" from="1085548014" to="438520593#0"/>
    <trip id="112" depart="40.32" from="-1193523318#5" to="24377936#0"/>
    <trip id="113" depart="40.68" from="-863158464#2" to="558634424#0"/>
    <trip id="114" depart="41.04" from="-15270744" to="8420629#0"/>
    <trip id="115" depart="41.40" from="-1227184777#0" to="-40268977"/>
    <trip id="116" depart="41.76" from="1324076749" to="336108217#0"/>
    <trip id="117" depart="42.12" from="-30800653" to="-22880532"/>
    <trip id="118" depart="42.48" from="563803487" to="-552360272#1"/>
    <trip id="119" depart="42.84" from="131569031#4" to="278709577"/>
    <trip id="120" depart="43.20" from="-575018502" to="24232455"/>
    <trip id="121" depart="43.56" from="-968498004" to="77094192"/>
    <trip id="122" depart="43.92" from="-25950667" to="39299943"/>
    <trip id="123" depart="44.28" from="-31010052#1" to="11555772#1"/>
    <trip id="124" depart="44.64" from="204664001" to="-623571878"/>
    <trip id="125" depart="45.00" from="-4495228" to="44354799"/>
    <trip id="126" depart="45.36" from="-12162574" to="1346189642#2"/>
    <trip id="127" depart="45.72" from="9884823#0" to="973070249"/>
    <trip id="128" depart="46.08" from="-12163454" to="-4803560#0"/>
    <trip id="129" depart="46.44" from="-372011863#1" to="76079913"/>
    <trip id="130" depart="46.80" from="558245728#1" to="575246606"/>
    <trip id="131" depart="47.16" from="-540275780" to="-32397790"/>
    <trip id="132" depart="47.52" from="5086421#0" to="38805746"/>
    <trip id="133" depart="47.88" from="14186705#2" to="9533188"/>
    <trip id="134" depart="48.24" from="15801861#1" to="-10595122#0"/>
    <trip id="135" depart="48.60" from="4622113" to="-623571877"/>
    <trip id="136" depart="48.96" from="189483998" to="8031699#1"/>
    <trip id="137" depart="49.32" from="-14776498#1" to="-207683800"/>
    <trip id="138" depart="49.68" from="-13870713" to="18662388"/>
    <trip id="139" depart="50.04" from="-38336179#1" to="26645917#1"/>
    <trip id="140" depart="50.40" from="28682845#1" to="-4495236"/>
    <trip id="141" depart="50.76" from="14870783" to="-564954774"/>
    <trip id="142" depart="51.12" from="-820246654#0" to="60447003"/>
    <trip id="143" depart="51.48" from="525659082#0" to="-15218476"/>
    <trip id="144" depart="51.84" from="-575268616#1" to="-575764245"/>
    <trip id="145" depart="52.20" from="-10212137" to="4748727"/>
    <trip id="146" depart="52.56" from="14947691#3" to="-563866151"/>
    <trip id="147" depart="52.92" from="330207018#0" to="186018747"/>
    <trip id="148" depart="53.28" from="-576360667" to="-10634344"/>
    <trip id="149" depart="53.64" from="-12182173" to="576360657"/>
    <trip id="150" depart="54.00" from="575729598" to="17090764"/>
    <trip id="151" depart="54.36" from="511511807#0" to="24150702#2"/>
    <trip id="152" depart="54.72" from="-15052927" to="-24748437#0"/>
    <trip id="153" depart="55.08" from="-43250248" to="593797120"/>
    <trip id="154" depart="55.44" from="434344661#1" to="563070453#1"/>
    <trip id="155" depart="55.80" from="572011056#0" to="-4717210"/>
    <trip id="156" depart="56.16" from="-33146358" to="-172447046"/>
    <trip id="157" depart="56.52" from="40236748" to="576794195"/>
    <trip id="158" depart="56.88" from="-564738739" to="28088332"/>
    <trip id="159" depart="57.24" from="-15267616" to="73848802#1"/>
    <trip id="160" depart="57.60" from="545738444" to="89889732"/>
    <trip id="161" depart="57.96" from="45156943" to="575590126"/>
    <trip id="162" depart="58.32" from="-1099673480" to="41712846"/>
    <trip id="163" depart="58.68" from="-503072816" to="74071551#2"/>
    <trip id="164" depart="59.04" from="4413596" to="564038054#0"/>
    <trip id="165" depart="59.40" from="45156943" to="-566728866"/>
    <trip id="166" depart="59.76" from="41276559" to="-198313676"/>
    <trip id="167" depart="60.12" from="550432834#0" to="562767374"/>
    <trip id="168" depart="60.48" from="-28682845#1" to="533316917"/>
    <trip id="169" depart="60.84" from="-618449786#0" to="-68273190"/>
    <trip id="170" depart="61.20" from="43394245" to="-530012492"/>
    <trip id="171" depart="61.56" from="-1092935352" to="-422926695#2"/>
    <trip id="172" depart="61.92" from="-4803411" to="564067792"/>
    <trip id="173" depart="62.28" from="83485392" to="-577791927"/>
    <trip id="174" depart="62.64" from="150995115" to="1160597830"/>
    <trip id="175" depart="63.00" from="90082019#0" to="15459816#2"/>
    <trip id="176" depart="63.36" from="675795970" to="-207681379"/>
    <trip id="177" depart="63.72" from="8420621" to="-38806016"/>
    <trip id="178" depart="64.08" from="818858242#0" to="-566218729#0"/>
    <trip id="179" depart="64.44" from="-13871361" to="12164804"/>
    <trip id="180" depart="64.80" from="30437972" to="-80014228#0"/>
    <trip id="181" depart="65.16" from="13870750#1" to="14937872"/>
    <trip id="182" depart="65.52" from="-551944005#1" to="23637407"/>
    <trip id="183" depart="65.88" from="-33392944" to="38902558"/>
    <trip id="184" depart="66.24" from="-10210408" to="703960323"/>
    <trip id="185" depart="66.60" from="1068431640" to="39625753"/>
    <trip id="186" depart="66.96" from="33051106#1" to="33391014#1"/>
    <trip id="187" depart="67.32" from="-536737667" to="-1426170779"/>
    <trip id="188" depart="67.68" from="190924565#0" to="-855557607#1"/>
    <trip id="189" depart="68.04" from="-44181712#1" to="554737284#0"/>
    <trip id="190" depart="68.40" from="28817182" to="-623571880"/>
    <trip id="191" depart="68.76" from="-43394244#0" to="1172206636"/>
    <trip id="192" depart="69.12" from="-563070476" to="-62327310"/>
    <trip id="193" depart="69.48" from="-1454414739#1" to="12090212#1"/>
    <trip id="194" depart="69.84" from="68429687#1" to="33756145#6"/>
    <trip id="195" depart="70.20" from="575268609" to="27410490"/>
    <trip id="196" depart="70.56" from="-41496776" to="173486724"/>
    <trip id="197" depart="70.92" from="-10115087" to="-590532046"/>
    <trip id="198" depart="71.28" from="-576802239#0" to="238894517"/>
    <trip id="199" depart="71.64" from="159977164#1" to="13798174#3"/>
    <trip id="200" depart="72.00" from="-5881745" to="-4805459#0"/>
    <trip id="201" depart="72.36" from="-708710969#1" to="5944806"/>
    <trip id="202" depart="72.72" from="434329533" to="-35478474#1"/>
    <trip id="203" depart="73.08" from="-12369984#3" to="149868370"/>
    <trip id="204" depart="73.44" from="148476132#3" to="-8781701#0"/>
    <trip id="205" depart="73.80" from="4717210" to="44178535"/>
    <trip id="206" depart="74.16" from="207123541" to="-523771831#1"/>
    <trip id="207" depart="74.52" from="-248669680" to="-11488247"/>
    <trip id="208" depart="74.88" from="-321717360" to="139265983#0"/>
    <trip id="209" depart="75.24" from="530969936#0" to="-14503771#0"/>
    <trip id="210" depart="75.60" from="-572299172" to="28684461"/>
    <trip id="211" depart="75.96" from="-24064657" to="379514076"/>
    <trip id="212" depart="76.32" from="-8406370" to="-550676056"/>
    <trip id="213" depart="76.68" from="165345723" to="-1055784507#1"/>
    <trip id="214" depart="77.04" from="34682838" to="4743768#0"/>
    <trip id="215" depart="77.40" from="-13863761" to="12100189#1"/>
    <trip id="216" depart="77.76" from="-193711507#4" to="8406370"/>
    <trip id="217" depart="78.12" from="-9533921" to="-1265922494#1"/>
    <trip id="218" depart="78.48" from="-33144633#1" to="554737285"/>
    <trip id="219" depart="78.84" from="-6067830" to="520140570"/>
    <trip id="220" depart="79.20" from="198426624#0" to="9533670"/>
    <trip id="221" depart="79.56" from="1324659288" to="820964111#0"/>
    <trip id="222" depart="79.92" from="564390793#0" to="27179402"/>
    <trip id="223" depart="80.28" from="28805474#0" to="148476140#1"/>
    <trip id="224" depart="80.64" from="506653387#0" to="173409826"/>
    <trip id="225" depart="81.00" from="568267276" to="43394227"/>
    <trip id="226" depart="81.36" from="-73884002#0" to="-562001971"/>
    <trip id="227" depart="81.72" from="-33101782" to="29206103"/>
    <trip id="228" depart="82.08" from="38093976" to="15218217"/>
    <trip id="229" depart="82.44" from="1466053503" to="-575590199"/>
    <trip id="230" depart="82.80" from="-1220029819" to="-5881717#0"/>
    <trip id="231" depart="83.16" from="-381711931#1" to="-818847704"/>
    <trip id="232" depart="83.52" from="10697976" to="-27467640#2"/>
    <trip id="233" depart="83.88" from="-300060268" to="37839666"/>
    <trip id="234" depart="84.24" from="27038301" to="-13949345"/>
    <trip id="235" depart="84.60" from="-564738751" to="16078003"/>
    <trip id="236" depart="84.96" from="-573192426" to="-454907776#0"/>
    <trip id="237" depart="85.32" from="-575246605" to="60441003#1"/>
    <trip id="238" depart="85.68" from="123143230" to="37841819"/>
    <trip id="239" depart="86.04" from="536885841" to="46656282#0"/>
    <trip id="240" depart="86.40" from="-548531491" to="-10567847"/>
    <trip id="241" depart="86.76" from="-521669296" to="4483799"/>
    <trip id="242" depart="87.12" from="53559990#0" to="826204850#1"/>
    <trip id="243" depart="87.48" from="-574766499" to="438417739#2"/>
    <trip id="244" depart="87.84" from="1120617084" to="26524625"/>
    <trip id="245" depart="88.20" from="-28567931" to="-51344153#1"/>
    <trip id="246" depart="88.56" from="-582263952#0" to="-116338839"/>
    <trip id="247" depart="88.92" from="-508393621" to="338677042#0"/>
    <trip id="248" depart="89.28" from="-563866204#1" to="-33819459"/>
    <trip id="249" depart="89.64" from="-652006890#0" to="-24773184"/>
    <trip id="250" depart="90.00" from="14503543" to="-1159580154"/>
    <trip id="251" depart="90.36" from="-558245735#0" to="206802250"/>
    <trip id="252" depart="90.72" from="-1116595528" to="30451180#0"/>
    <trip id="253" depart="91.08" from="-148476131" to="1364281503"/>
    <trip id="254" depart="91.44" from="-1168931401#1" to="1101829670"/>
    <trip id="255" depart="91.80" from="-267813349" to="-8420621"/>
    <trip id="256" depart="92.16" from="374528267" to="1101829670"/>
    <trip id="257" depart="92.52" from="34859767#1" to="543129612"/>
    <trip id="258" depart="92.88" from="-33391014#1" to="-14870565#0"/>
    <trip id="259" depart="93.24" from="-10697240" to="15677654"/>
    <trip id="260" depart="93.60" from="997075380#1" to="-9884096"/>
    <trip id="261" depart="93.96" from="15388467" to="506653375"/>
    <trip id="262" depart="94.32" from="15504820#0" to="4495228"/>
    <trip id="263" depart="94.68" from="758118664#1" to="-441584663#1"/>
    <trip id="264" depart="95.04" from="-1075515323" to="-30799983"/>
    <trip id="265" depart="95.40" from="-14503771#2" to="33389606"/>
    <trip id="266" depart="95.76" from="11656625#1" to="-5074648#2"/>
    <trip id="267" depart="96.12" from="25956729" to="47029597"/>
    <trip id="268" depart="96.48" from="-170032512" to="26646784"/>
    <trip id="269" depart="96.84" from="33756145#7" to="-206811798"/>
    <trip id="270" depart="97.20" from="472554851" to="842455631"/>
    <trip id="271" depart="97.56" from="-13871188#1" to="-11555860#1"/>
    <trip id="272" depart="97.92" from="-4399044" to="33756145#7"/>
    <trip id="273" depart="98.28" from="81358773" to="11562026"/>
    <trip id="274" depart="98.64" from="285303241#0" to="-146362640"/>
    <trip id="275" depart="99.00" from="24669166" to="28642890#0"/>
    <trip id="276" depart="99.36" from="-136091461" to="477680607"/>
    <trip id="277" depart="99.72" from="532766814" to="26154762"/>
    <trip id="278" depart="100.08" from="-143756158" to="9388671"/>
    <trip id="279" depart="100.44" from="40535370#2" to="-968722831"/>
    <trip id="280" depart="100.80" from="-576672710#1" to="10677624#1"/>
    <trip id="281" depart="101.16" from="-87768414" to="-9347421#0"/>
    <trip id="282" depart="101.52" from="530859341" to="536840267#2"/>
    <trip id="283" depart="101.88" from="-1382547006" to="8420629#0"/>
    <trip id="284" depart="102.24" from="14940054#0" to="540535835"/>
    <trip id="285" depart="102.60" from="27293443" to="12182173"/>
    <trip id="286" depart="102.96" from="31020659" to="852138916"/>
    <trip id="287" depart="103.32" from="-37883377" to="525186192#0"/>
    <trip id="288" depart="103.68" from="106567037" to="1432250947"/>
    <trip id="289" depart="104.04" from="-581954163" to="41222879#0"/>
    <trip id="290" depart="104.40" from="-37839667" to="558630442"/>
    <trip id="291" depart="104.76" from="506692917" to="-150091892#1"/>
    <trip id="292" depart="105.12" from="558630452#0" to="-550676056"/>
    <trip id="293" depart="105.48" from="-623571873" to="26999127#1"/>
    <trip id="294" depart="105.84" from="-547889790#0" to="-116338839"/>
    <trip id="295" depart="106.20" from="533168803" to="-39297707"/>
    <trip id="296" depart="106.56" from="-268045040#1" to="5197115"/>
    <trip id="297" depart="106.92" from="-516425063" to="575246708#1"/>
    <trip id="298" depart="107.28" from="26154838" to="-575764243"/>
    <trip id="299" depart="107.64" from="-1056345545" to="8163506#1"/>
    <trip id="300" depart="108.00" from="-12411100" to="39786794"/>
    <trip id="301" depart="108.36" from="-820246654#1" to="4498183"/>
    <trip id="302" depart="108.72" from="24669165" to="30800653"/>
    <trip id="303" depart="109.08" from="-826188135#0" to="517501172"/>
    <trip id="304" depart="109.44" from="-128840098" to="-5197107#1"/>
    <trip id="305" depart="109.80" from="24701200" to="-68906439#0"/>
    <trip id="306" depart="110.16" from="1215103230#0" to="13872740"/>
    <trip id="307" depart="110.52" from="104371719#2" to="12101077"/>
    <trip id="308" depart="110.88" from="33689035" to="-860219785#0"/>
    <trip id="309" depart="111.24" from="26598633" to="-573192422"/>
    <trip id="310" depart="111.60" from="-33390208#1" to="-232521621"/>
    <trip id="311" depart="111.96" from="-238894517" to="-22880532"/>
    <trip id="312" depart="112.32" from="1061248000" to="4572095"/>
    <trip id="313" depart="112.68" from="-22597713" to="-505860159"/>
    <trip id="314" depart="113.04" from="-8105087" to="405659393#1"/>
    <trip id="315" depart="113.40" from="870913967" to="15219979"/>
    <trip id="316" depart="113.76" from="-39297934" to="-17090701#0"/>
    <trip id="317" depart="114.12" from="-24035647" to="-530012492"/>
    <trip id="318" depart="114.48" from="-203867685" to="-108335698"/>
    <trip id="319" depart="114.84" from="10595029" to="-575246710"/>
    <trip id="320" depart="115.20" from="860373105#2" to="18662388"/>
    <trip id="321" depart="115.56" from="25763150" to="-24669643"/>
    <trip id="322" depart="115.92" from="548134627" to="14500839"/>
    <trip id="323" depart="116.28" from="550676056" to="23318289#0"/>
    <trip id="324" depart="116.64" from="-671965939#2" to="12369342"/>
    <trip id="325" depart="117.00" from="-224929677" to="-1282772919#1"/>
    <trip id="326" depart="117.36" from="692217898" to="1417188372"/>
    <trip id="327" depart="117.72" from="4803410" to="1163519192#0"/>
    <trip id="328" depart="118.08" from="-12163538" to="28682875"/>
    <trip id="329" depart="118.44" from="-11788435#1" to="-30168998"/>
    <trip id="330" depart="118.80" from="1163550984#0" to="-671965939#1"/>
    <trip id="331" depart="119.16" from="968205397#1" to="-224129052"/>
    <trip id="332" depart="119.52" from="37841822" to="26646344"/>
    <trip id="333" depart="119.88" from="421340866#1" to="-525169203"/>
    <trip id="334" depart="120.24" from="-968205385#1" to="128840098"/>
    <trip id="335" depart="120.60" from="-590532050" to="563070399#1"/>
    <trip id="336" depart="120.96" from="9509758" to="-683609958#0"/>
    <trip id="337" depart="121.32" from="14477505" to="26828134"/>
    <trip id="338" depart="121.68" from="325418561#3" to="8163499"/>
    <trip id="339" depart="122.04" from="-26645783#0" to="-4743769#1"/>
    <trip id="340" depart="122.40" from="179425262" to="-32063944"/>
    <trip id="341" depart="122.76" from="-187700719#3" to="-145481738"/>
    <trip id="342" depart="123.12" from="-10211791" to="128840098"/>
    <trip id="343" depart="123.48" from="1312596915#0" to="-595145773"/>
    <trip id="344" depart="123.84" from="-30437971" to="38880924"/>
    <trip id="345" depart="124.20" from="26598634" to="1308979523"/>
    <trip id="346" depart="124.56" from="24232453" to="68868354"/>
    <trip id="347" depart="124.92" from="41276564" to="284686653#1"/>
    <trip id="348" depart="125.28" from="182071993" to="76280862#0"/>
    <trip id="349" depart="125.64" from="-575729603" to="167699653#0"/>
    <trip id="350" depart="126.00" from="15270273" to="607424781"/>
    <trip id="351" depart="126.36" from="50003684#1" to="-14458610"/>
    <trip id="352" depart="126.72" from="-16078003" to="-70732843#0"/>
    <trip id="353" depart="127.08" from="33859443#0" to="224129052"/>
    <trip id="354" depart="127.44" from="-39977657" to="-24064844#1"/>
    <trip id="355" depart="127.80" from="24444780" to="382961599"/>
    <trip id="356" depart="128.16" from="701188548" to="1474756275"/>
    <trip id="357" depart="128.52" from="-8406364#1" to="-147759323#0"/>
    <trip id="358" depart="128.88" from="-1155434736#1" to="12162126"/>
    <trip id="359" depart="129.24" from="-4622092#2" to="-555629083"/>
    <trip id="360" depart="129.60" from="-1282935996#1" to="84223359#2"/>
    <trip id="361" depart="129.96" from="51348158" to="23619702"/>
    <trip id="362" depart="130.32" from="77079364" to="9938340"/>
    <trip id="363" depart="130.68" from="206574016" to="-569031648"/>
    <trip id="364" depart="131.04" from="-11555772#0" to="4495337"/>
    <trip id="365" depart="131.40" from="-692614781#0" to="31009752"/>
    <trip id="366" depart="131.76" from="5881726#1" to="-39297655"/>
    <trip id="367" depart="132.12" from="12369028" to="28921163"/>
    <trip id="368" depart="132.48" from="-830509031" to="-15218311#0"/>
    <trip id="369" depart="132.84" from="-5197115" to="-863885135#0"/>
    <trip id="370" depart="133.20" from="20291066" to="562238313"/>
    <trip id="371" depart="133.56" from="-48606788#1" to="37839663#3"/>
    <trip id="372" depart="133.92" from="-3995297#1" to="81285064"/>
    <trip id="373" depart="134.28" from="4572094" to="182071991"/>
    <trip id="374" depart="134.64" from="-604908905" to="-8031688#1"/>
    <trip id="375" depart="135.00" from="-47029597" to="863158466#1"/>
    <trip id="376" depart="135.36" from="-563866166" to="149584032"/>
    <trip id="377" depart="135.72" from="946557459#0" to="31680483"/>
    <trip id="378" depart="136.08" from="108815699" to="11911719"/>
    <trip id="379" depart="136.44" from="-23137101" to="1055882946#0"/>
    <trip id="380" depart="136.80" from="362892944#0" to="285303233"/>
    <trip id="381" depart="137.16" from="373370449#0" to="-4495236"/>
    <trip id="382" depart="137.52" from="11264169#2" to="708025133#0"/>
    <trip id="383" depart="137.88" from="-58697413" to="381190531#0"/>
    <trip id="384" depart="138.24" from="-14378928#1" to="8766617#0"/>
    <trip id="385" depart="138.60" from="13949348#1" to="-543129612"/>
    <trip id="386" depart="138.96" from="-15273106" to="182516973"/>
    <trip id="387" depart="139.32" from="1137332799" to="-152405841"/>
    <trip id="388" depart="139.68" from="9623489" to="623124395"/>
    <trip id="389" depart="140.04" from="-620615180" to="-223274341"/>
    <trip id="390" depart="140.40" from="5074035#1" to="146783879"/>
    <trip id="391" depart="140.76" from="28642864#4" to="149246860#2"/>
    <trip id="392" depart="141.12" from="-386911105" to="545985133"/>
    <trip id="393" depart="141.48" from="90004141" to="-550676053"/>
    <trip id="394" depart="141.84" from="1136478760#0" to="1125870988"/>
    <trip id="395" depart="142.20" from="595145777" to="1487749775#1"/>
    <trip id="396" depart="142.56" from="556777357#0" to="564038054#0"/>
    <trip id="397" depart="142.92" from="-38806842" to="515247689#1"/>
    <trip id="398" depart="143.28" from="-572299172" to="77094192"/>
    <trip id="399" depart="143.64" from="-889564299" to="536824258"/>
    <trip id="400" depart="144.00" from="-39297919#1" to="-623571875"/>
    <trip id="401" depart="144.36" from="1250608522#1" to="9938247"/>
    <trip id="402" depart="144.72" from="-824558179#1" to="-295864510"/>
    <trip id="403" depart="145.08" from="10689188" to="-95575619#2"/>
    <trip id="404" depart="145.44" from="1137249233#0" to="16507144#1"/>
    <trip id="405" depart="145.80" from="-60499729" to="-823540228"/>
    <trip id="406" depart="146.16" from="-23406787" to="380779282"/>
    <trip id="407" depart="146.52" from="11911145" to="-536885841"/>
    <trip id="408" depart="146.88" from="39239530" to="-1210733820"/>
    <trip id="409" depart="147.24" from="33391817" to="38806621"/>
    <trip id="410" depart="147.60" from="4533226" to="113568234#1"/>
    <trip id="411" depart="147.96" from="189632870" to="536826452#0"/>
    <trip id="412" depart="148.32" from="90062603-AddedOnRampEdge" to="146291881"/>
    <trip id="413" depart="148.68" from="-11420576#2" to="14776658"/>
    <trip id="414" depart="149.04" from="1282847496" to="566728853"/>
    <trip id="415" depart="149.40" from="551612198#1" to="12369342"/>
    <trip id="416" depart="149.76" from="1007827873" to="1324659288"/>
    <trip id="417" depart="150.12" from="29199468#2" to="11785635"/>
    <trip id="418" depart="150.48" from="16076665" to="-31240900"/>
    <trip id="419" depart="150.84" from="-672153089" to="86145637"/>
    <trip id="420" depart="151.20" from="-51272200#2" to="377140183#1"/>
    <trip id="421" depart="151.56" from="15388467" to="558630448"/>
    <trip id="422" depart="151.92" from="534203012#0" to="562767383#0"/>
    <trip id="423" depart="152.28" from="-548338022" to="-81285063"/>
    <trip id="424" depart="152.64" from="28802233" to="45156949#1"/>