<configuration>
    <input>
        <net-file value="H:\traffic_flow_models\src\demo\scenarios\network\ab\ab.net.xml"/>
        <route-files value="H:\traffic_flow_models\src\demo\scenarios\scenario_a\a.rou.xml"/>
    </input>
    <time>
        <begin value="0"/>
        <end value="3600"/>
        <step-length value="1.0"/> 
    </time>
    <processing>
        <time-to-teleport value="-1"/> 
    </processing>
</configuration>