<routes>

    <vType id="urban" length="5.0" maxSpeed="27.78" lcCooperative="1.0"/>


    <route id="main_route" edges="1234567 7654321" />
    <route id="ramp_route" edges="8963467 7654321" />


    <flow id="main_0"    route="main_route" type="urban" begin="0"    end="600"  vehsPerHour="500.0"
        departSpeed="max" departLane="random" />
    <flow id="ramp_0"    route="ramp_route" type="urban" begin="0"    end="600"  vehsPerHour="100.0"
        departSpeed="max" departLane="random" />

    <flow id="main_600"  route="main_route" type="urban" begin="600"  end="1200" vehsPerHour="1200.0"
        departSpeed="max" departLane="random" />
    <flow id="ramp_600"  route="ramp_route" type="urban" begin="600"  end="1200" vehsPerHour="240.0"
        departSpeed="max" departLane="random" />

    <flow id="main_1200" route="main_route" type="urban" begin="1200" end="1800" vehsPerHour="1700.0"
        departSpeed="max" departLane="random" />
    <flow id="ramp_1200" route="ramp_route" type="urban" begin="1200" end="1800" vehsPerHour="340.0"
        departSpeed="max" departLane="random" />

    <flow id="main_1800" route="main_route" type="urban" begin="1800" end="2400" vehsPerHour="2000.0"
        departSpeed="max" departLane="random" />
    <flow id="ramp_1800" route="ramp_route" type="urban" begin="1800" end="2400" vehsPerHour="400.0"
        departSpeed="max" departLane="random" />

    <flow id="main_2400" route="main_route" type="urban" begin="2400" end="3000" vehsPerHour="2200.0"
        departSpeed="max" departLane="random" />
    <flow id="ramp_2400" route="ramp_route" type="urban" begin="2400" end="3000" vehsPerHour="440.0"
        departSpeed="max" departLane="random" />

    <flow id="main_3000" route="main_route" type="urban" begin="3000" end="3600" vehsPerHour="2000.0"
        departSpeed="max" departLane="random" />
    <flow id="ramp_3000" route="ramp_route" type="urban" begin="3000" end="3600" vehsPerHour="400.0"
        departSpeed="max" departLane="random" />

    <flow id="main_3600" route="main_route" type="urban" begin="3600" end="4200" vehsPerHour="1700.0"
        departSpeed="max" departLane="random" />
    <flow id="ramp_3600" route="ramp_route" type="urban" begin="3600" end="4200" vehsPerHour="340.0"
        departSpeed="max" departLane="random" />

    <flow id="main_4200" route="main_route" type="urban" begin="4200" end="4800" vehsPerHour="1200.0"
        departSpeed="max" departLane="random" />
    <flow id="ramp_4200" route="ramp_route" type="urban" begin="4200" end="4800" vehsPerHour="240.0"
        departSpeed="max" departLane="random" />

    <flow id="main_4800" route="main_route" type="urban" begin="4800" end="5400" vehsPerHour="500.0"
        departSpeed="max" departLane="random" />
    <flow id="ramp_4800" route="ramp_route" type="urban" begin="4800" end="5400" vehsPerHour="100.0"
        departSpeed="max" departLane="random" />

</routes>