<routes>

    <vType id="urban" length="5.0" maxSpeed="27.78" lcCooperative="1.0" />


    <route id="main_route" edges="1234567 7654321" />
    <route id="ramp_route" edges="8963467 7654321" />

    <flow id="main_0" route="main_route" type="urban" begin="0" end="300" vehsPerHour="1333.3"
        departSpeed="max" departLane="random" />
    <flow id="ramp_0" route="ramp_route" type="urban" begin="0" end="300" vehsPerHour="333.3"
        departSpeed="max" departLane="random" />
    <flow id="main_300" route="main_route" type="urban" begin="300" end="600" vehsPerHour="4000.0"
        departSpeed="max" departLane="random" />
    <flow id="ramp_300" route="ramp_route" type="urban" begin="300" end="600" vehsPerHour="1000.0"
        departSpeed="max" departLane="random" />
    <flow id="main_600" route="main_route" type="urban" begin="600" end="900" vehsPerHour="4000.0"
        departSpeed="max" departLane="random" />
    <flow id="ramp_600" route="ramp_route" type="urban" begin="600" end="900" vehsPerHour="1666.7"
        departSpeed="max" departLane="random" />
    <flow id="main_900" route="main_route" type="urban" begin="900" end="1200" vehsPerHour="4000.0"
        departSpeed="max" departLane="random" />
    <flow id="ramp_900" route="ramp_route" type="urban" begin="900" end="1200" vehsPerHour="2000.0"
        departSpeed="max" departLane="random" />
    <flow id="main_1200" route="main_route" type="urban" begin="1200" end="1500"
        vehsPerHour="4000.0"
        departSpeed="max" departLane="random" />
    <flow id="ramp_1200" route="ramp_route" type="urban" begin="1200" end="1500"
        vehsPerHour="2000.0"
        departSpeed="max" departLane="random" />
    <flow id="main_1500" route="main_route" type="urban" begin="1500" end="1800"
        vehsPerHour="4000.0"
        departSpeed="max" departLane="random" />
    <flow id="ramp_1500" route="ramp_route" type="urban" begin="1500" end="1800"
        vehsPerHour="2000.0"
        departSpeed="max" departLane="random" />
    <flow id="main_1800" route="main_route" type="urban" begin="1800" end="2100"
        vehsPerHour="4000.0"
        departSpeed="max" departLane="random" />
    <flow id="ramp_1800" route="ramp_route" type="urban" begin="1800" end="2100"
        vehsPerHour="2000.0"
        departSpeed="max" departLane="random" />
    <flow id="main_2100" route="main_route" type="urban" begin="2100" end="2400"
        vehsPerHour="4000.0"
        departSpeed="max" departLane="random" />
    <flow id="ramp_2100" route="ramp_route" type="urban" begin="2100" end="2400"
        vehsPerHour="2000.0"
        departSpeed="max" departLane="random" />
    <flow id="main_2400" route="main_route" type="urban" begin="2400" end="2700"
        vehsPerHour="4000.0"
        departSpeed="max" departLane="random" />
    <flow id="ramp_2400" route="ramp_route" type="urban" begin="2400" end="2700"
        vehsPerHour="2000.0"
        departSpeed="max" departLane="random" />
    <flow id="main_2700" route="main_route" type="urban" begin="2700" end="3000"
        vehsPerHour="4000.0"
        departSpeed="max" departLane="random" />
    <flow id="ramp_2700" route="ramp_route" type="urban" begin="2700" end="3000"
        vehsPerHour="1666.7"
        departSpeed="max" departLane="random" />
    <flow id="main_3000" route="main_route" type="urban" begin="3000" end="3300"
        vehsPerHour="4000.0"
        departSpeed="max" departLane="random" />
    <flow id="ramp_3000" route="ramp_route" type="urban" begin="3000" end="3300"
        vehsPerHour="1000.0"
        departSpeed="max" departLane="random" />
    <flow id="main_3300" route="main_route" type="urban" begin="3300" end="3600"
        vehsPerHour="1333.3"
        departSpeed="max" departLane="random" />
    <flow id="ramp_3300" route="ramp_route" type="urban" begin="3300" end="3600" vehsPerHour="333.3"
        departSpeed="max" departLane="random" />
</routes>