<?xml version='1.0' encoding='utf-8'?>
<routes><vType id="passenger_car" vClass="passenger" /><vehicle id="urban_0" depart="0.00" type="passenger_car">
        <route edges="150996033 1163529329 398028002#0 -601718666#2 4479836#0 374407128 15677654 77079364 77079366 77078537#0 41455289#0 4479820#0 559462250#0 23920557 521436343#0 521436340 559462248 521441691 572394518 1205428239 521460742#1 434329524 434329533 572394516 545985118 434329522 545985121#0 545985121#1 545985121#2 545985124 545985140 12100189#0 -580533727 -1227405384#1 -1227405384#0 -11489036#0" />
    </vehicle>
    <vehicle id="hw_0" type="passenger_car" depart="0.00">
        <route edges="137477230 624393074 438296341 78508613 1246474482 38687026 35359564#0 35359564#0-AddedOffRampEdge 35359564#1 537948558 24150898 189484004#0 38687028 38152064#0 17051850 189483994 39023162 537948564 137881935 38687027 137477233 1177026548 624393072" />
    </vehicle>
    <vehicle id="hw_1" type="passenger_car" depart="1.00">
        <route edges="17051627 1296210318 537948563 32278541 537948562 44774431 210731931#0 548701320 32391480#0 39013713 284105541 24043220 22944609 44774429 537948560 537948559 17051721 24375635 40959640 40959640-AddedOffRampEdge 136130942 1246474483 1246474484 1246474485 1246474488" />
    </vehicle>
    <vehicle id="hw_2" type="passenger_car" depart="2.00">
        <route edges="32278537 840189967#0 38687028 38152064#0 38210039" />
    </vehicle>
    <vehicle id="urban_1" depart="2.50" type="passenger_car">
        <route edges="-38806842 -42922245#0 10596298 1163818787 758118673 524060354 416541350#1 99293278#0 599784571 118641215#0 599784551 530760617#0 88343070#1 28423906 28687600#0 28687600#1 530760613#0 530760613#1 1137244531#0 28423788 536961099 1137244529 1395340223 11391988 8420633 32041764 -13870985#1 -13870985#0 10621794 444245102#0 566728815 38092527 10621634 1166324776#0 35046136 94717982 1235466090 94717984#0 35286915 760873574#0 35286914 -574419153 -574419154 24286056#1 -434344661#1 -434344661#0 35286407 572383206 -880564390#0 167699653#0 -155248202 -1055882953 -41276562#6 -41276562#4 -41276562#2 -41276562#1 -560041134#1 -45156941 1193523318#1 -97361190 -24154399 -520140572" />
    </vehicle>
    <vehicle id="hw_3" type="passenger_car" depart="3.00">
        <route edges="32278537 840189967#0 38687028 38152064#0 17051850 189483994 39023162 537948564 137881935 38687027 137477233 1177026548 624393072" />
    </vehicle>
    <vehicle id="hw_4" type="passenger_car" depart="4.00">
        <route edges="137477230 624393074 438296341 78508613 1246474482 38687026 35359564#0 35359564#0-AddedOffRampEdge 35359564#1 537948558 24150898 189484004#0 38687028 38152064#0 17051850 189483994 39023162 537948564 137881935 38687027 137477233 1177026548 624393072" />
    </vehicle>
    <vehicle id="urban_2" depart="5.00" type="passenger_car">
        <route edges="32041768#2 141698824#0 141698824#1 566728848 566218730#0 566728851 566728849#0 198481170#0 198481170#2 198481170#3 566218728 -566728845 -567839270 -1450651731 -11912381#3 -11912381#2 -11912381#1 -11912381#0 -568267268#0 33859458" />
    </vehicle>
    <vehicle id="hw_5" type="passenger_car" depart="5.00">
        <route edges="9623489 173486724 189483998 9532404 1308759310 1177023264 1177023504 1177023265 35359564#0 35359564#0-AddedOffRampEdge 35359564#1 38867855 32278541 537948562 44774431 210731931#0" />
    </vehicle>
    <vehicle id="hw_6" type="passenger_car" depart="6.00">
        <route edges="17051627 1296210318 537948563 32278541 537948562 44774431 210731931#0 548701320 32391480#0 39013713 284105541 24043220 22944609 44774429 537948560 537948559 17051721 537948567 537948564 39023161 1296447018 38698217 537948557 1317599359 841445690 386762273 1308759311" />
    </vehicle>
    <vehicle id="hw_7" type="passenger_car" depart="7.00">
        <route edges="17051627 1296210318 537948563 32278541 537948562 44774431 210731931#0 548701320 32391480#0 39013713 284105541 32391483#0 32391483#1 -604653795#2 -604653795#0 -10567987#1 -10567987#0 24668899 554029744 214071214 821484879#0 821414822 821484874#0 207669528 608387914 313461876 38209977 38327026#0 38327026#1 1304300499 1304300500 437752159 840189966#0 38210039" />
    </vehicle>
    <vehicle id="urban_3" depart="7.50" type="passenger_car">
        <route edges="565569079 41217426#1 41217426#2 1163531329#0 1163531330 28642864#0 28642864#1 28642864#4 28642864#5 1305585323#1 1305585323#2 1305585323#3 1053870623#1 663596399#0 -39218314 27467640#6 -150995105#0" />
    </vehicle>
    <vehicle id="hw_8" type="passenger_car" depart="8.00">
        <route edges="32278537 840189967#0 38687028 38152064#0 17051850 189483994 39023162 537948564 39023161 1296447018 38698217 537948557 1317599359 841445690 386762273 1308759311" />
    </vehicle>
    <vehicle id="hw_9" type="passenger_car" depart="9.00">
        <route edges="9623489 173486724 189483998 9532404 1308759310 1177023264 1177023504 1177023265 35359564#0 35359564#0-AddedOffRampEdge 35359564#1 537948558 24150898 189484004#0 38687028 38152064#0 38210039" />
    </vehicle>
    <vehicle id="urban_4" depart="10.00" type="passenger_car">
        <route edges="-575246668 -4622092#2 -4622092#1 -4622092#0 -575246710 -284092320#2 -284092320#1 -284092320#0 -191828659 -30474688 89614473#0 -174007941#1 -89614475#1 -556777357#1 412844317 -576429034#0 -131569031#4 -131569031#3 -131569031#2 -131569031#1 -131569031#0 33713044#0 27992887#0 28671072#0 131569032 546093817#1 546093817#2 131569033 1167905445#0 1167905446 38101625 38148167 12123224#0 12123224#1 461214213 558664486#0 24377936#0 1215103230#0 377701953#0 41266875#0 41266875#1 -574500417#1 -574500427#1 -920654823 476580917#0 476580917#1 -1305374215 -574500415#5 -574500415#4 -574500415#2 -574500415#0 517166257 -577791927 -529381446#2 -529381446#1 -593076013#1 -593076012 23570562 593076011 294144023#0 120613501 294148769 374528655 4799417#0 -1411243431 -1344040643 -92142139 -4398951 -548370032 -548370033 4730416#0 548370035 548370031#0 334810149#0 334810149#1 548370029 968872142#0 968872142#1 548370030 548370036 15801838#0 33694486#0 33695352#0 1264561679#0 33695402#0 331553004#0 1078174821 942348910#0 10750844#0 86145639#1 86145639#2 565560611#0 1168931401#0 5074558#0 -1163565847#1" />
    </vehicle>
    <vehicle id="hw_10" type="passenger_car" depart="10.00">
        <route edges="137477230 624393074 438296341 78508613 1246474482 38687026 35359564#0 35359564#0-AddedOffRampEdge 35359564#1 38867855 32278541 537948562 44774431 210731931#0" />
    </vehicle>
    <vehicle id="hw_11" type="passenger_car" depart="11.00">
        <route edges="32278537 840189967#0 38687028 1299502116 1299502115 374430168 369337851 27038301 437752160 1059553010 38327025#0 207669537 -821484874#1 -821414822 -821484879#1 -554029745#1 -554029744 -1050464202 10567987#0 10567987#1 604653795#0 604653795#1 24043173" />
    </vehicle>
    <vehicle id="hw_12" type="passenger_car" depart="12.00">
        <route edges="9623489 173486724 189483998 9532404 1308759310 1177023264 1177023504 1177023265 35359564#0 35359564#0-AddedOffRampEdge 35359564#1 537948558 24150898 189484004#0 38687028 38152064#0 38210039 40959640 40959640-AddedOffRampEdge 136130942 1246474483 1246474484 1246474485 1246474488" />
    </vehicle>
    <vehicle id="urban_5" depart="12.50" type="passenger_car">
        <route edges="-28567629#1 -406734437#1 -536823977 -28567647#1 -536821796#1 -27411318#1 -142304936#1 -1137249231#1 -497887654 -549175732#1 -775871916 -28193162#1 33689035 231243824 558005587#1 558005587#2 558005588 30481349#0 558630438 568227903 525186192#0 28567934 208805243 737655602 568509933#0 568509926#0 43169913 30474150 30474152#0 -737224679#1 -575268609 31857349#0 31857349#1 833526336#0 833526336#1 574766490#0 28987328 574766499 14872064" />
    </vehicle>
    <vehicle id="hw_13" type="passenger_car" depart="13.00">
        <route edges="17051627 1296210318 537948563 32278541 537948562 44774431 210731931#0 548701320 32391480#0 39013713 284105541 24043220 22944609 44774429 537948560 537948559 17051721 24375635" />
    </vehicle>
    <vehicle id="hw_14" type="passenger_car" depart="14.00">
        <route edges="137477230 624393074 438296341 78508613 1246474482 38687026 35359564#0 35359564#0-AddedOffRampEdge 35359564#1 38867855 32278541 537948562 44774431 210731931#0" />
    </vehicle>
    <vehicle id="urban_6" depart="15.00" type="passenger_car">
        <route edges="-1113744422#1 -1113744422#0 4479820#0 5183081#0 218931349 1316608462 548134627 548134625 548134623 548134624#0 1163500948#0 27338864#0 27338864#1 1132425474 500044920 91360441 545985168 524395738#0 524395738#1 984868005#0 499921705 601313594#0 601313594#2 524395739#0 545985114 545985115 15458549#0 28805427#0 28805427#1 29219530#0 551563368 1208817995#0 1208817996 372798715#1 454907784 454907779 454907786 454907785 454907774 1121256657 454907773 454907777 372798718#1 689645390#2 405741660#0 33557639#0 405741661 593797109 -592391121 -43817589#0 -43817594 -15274408#1 -15274408#0 -43817591#0" />
    </vehicle>
    <vehicle id="hw_15" type="passenger_car" depart="15.00">
        <route edges="24043220 22944609 44774429 537948560 537948559 17051721 24375635 40959640 40959640-AddedOffRampEdge 136130942 1246474483 1246474484 1246474485 1246474488" />
    </vehicle>
    <vehicle id="hw_16" type="passenger_car" depart="16.00">
        <route edges="32278537 840189967#0 38687028 38152064#0 38210039" />
    </vehicle>
    <vehicle id="hw_17" type="passenger_car" depart="17.00">
        <route edges="24043220 22944609 44774429 537948560 537948559 17051721 537948567 537948564 137881935 38687027 137477233 1177026548 624393072" />
    </vehicle>
    <vehicle id="urban_7" depart="17.50" type="passenger_car">
        <route edges="15675699 603349776#0 842455631 15675745#0 -842453938 -860373106#1 -861311402 -861311401 -5944813#1 -5944813#0 24042836#1 39013713 284105541 32391483#0 32391483#1 -604653795#2 -604653795#0 -10567987#1 -10567987#0 -850288301#1 -850288301#0 -33697683#1 -33697683#0 -886502660 -9938158#1 -9938158#0 -1461589819 547889785 173409826" />
    </vehicle>
    <vehicle id="hw_18" type="passenger_car" depart="18.00">
        <route edges="17051627 1296210318 537948563 32278541 537948562 44774431 210731931#0" />
    </vehicle>
    <vehicle id="urban_8" depart="20.00" type="passenger_car">
        <route edges="12164382#1 203625072 -10697571 -537731504 -11264169#0 -569031609#0 515023101 558630436 -568227903 -558630438 515023094 30481348#0 30481348#1 28984745 558630458 1210776823 1210778513 -55155499 -10596127#1 28567647#0 536823977 561297487 -536826949#1 -536836676 -1210783332 -35275929#1 -174693504#2 -1210782730 -1210782731 -174693506#1 -174694073#3 -174694073#2 -174694073#1 -174694073#0 -8105822#1 27992887#0 28671072#0 131569032 546093817#1 546093817#2 131569033 1167905445#0 1167905446 38101625 38148167 12123224#0 12123224#1 461214213 558664486#0 24377936#0 1215103230#0 377701953#0 41266875#0 41266875#1 -574500417#1 -574500427#1 -920654823 476580917#0 476580917#1 -1305374215 -574500415#5 -574500415#4 -574500415#2 -574500415#0 517166257 -577791927 -529381446#2 -529381446#1 -593076013#1 -593076012 23570562 593076011 294144023#0 120613501 294148769 374528655 4799417#0 -1411243431 -1344040643 -92142139 -4398951 -548370032 -548370033 4730416#0 548370035 548370031#0 334810149#0 334810149#1 548370029 968872142#0 968872142#1 548370030 548370036 15801838#0 33694486#0 1051820108 248669676 248669675" />
    </vehicle>
    <vehicle id="hw_20" type="passenger_car" depart="20.00">
        <route edges="24043220 22944609 44774429 537948560 537948559 17051721 24375635 40959640 40959640-AddedOffRampEdge 136130942 1246474483 1246474484 1246474485 1246474488" />
    </vehicle>
    <vehicle id="hw_21" type="passenger_car" depart="21.00">
        <route edges="17051627 1296210318 537948563 32278541 537948562 44774431 210731931#0 548701320 32391480#0 39013713 284105541 32391483#0 32391483#1 24043173" />
    </vehicle>
    <vehicle id="hw_22" type="passenger_car" depart="22.00">
        <route edges="9623489 173486724 189483998 9532404 1308759310 1177023264 1177023505 30155954 137477233 1177026548 624393072" />
    </vehicle>
    <vehicle id="urban_9" depart="22.50" type="passenger_car">
        <route edges="4498177#2 4483940#3 4483940#4 421340866#0 421340866#1 421340866#2 581954148#0 -41217429#3 -41217429#1 -41217429#0 -582263960#1 -313458176#2 -601718666#2 27361375#0 361838934#0 569781024 15801814#0 60447877 1169386967 374522039#0 60447878 188708009 188708010 1168931395#0 188708011 172222117#0 496934557 -46656282#1 24701208#0 24701208#1 1421090666#1 1421090666#2 1421090666#3 506653387#0 506653387#1 506653376 1120617084 1120617085#1 -692614780#1 -27489473 -542740874 -30450855#1 824504527 -331552995#1 -331552995#0 -27489475 207669528 608387914 608387913#0 24669329 1305443700 -10567850" />
    </vehicle>
    <vehicle id="hw_23" type="passenger_car" depart="23.00">
        <route edges="32391483#0 32391483#1 24043173 548701320 32391480#0 39013713 284105541 24043220 22944609 44774429 537948560 537948559 17051721 537948567 537948564 137881935 38687027 137477233 1177026548 624393072" />
    </vehicle>
    <vehicle id="hw_24" type="passenger_car" depart="24.00">
        <route edges="9623489 173486724 189483998 9532404 1308759310 1177023264 1177023504 1177023265 35359564#0 35359564#0-AddedOffRampEdge 35359564#1 537948558 24150898 189484004#0 38687028 38152064#0 38210039 40959640 40959640-AddedOffRampEdge 136130942 1246474483 1246474484 1246474485 1246474488" />
    </vehicle>
    <vehicle id="urban_10" depart="25.00" type="passenger_car">
        <route edges="4483927 1147015971 -4393002#3 -4393002#1 -4393002#0 -1113744422#2 -1113744422#1 -1113744422#0 -371345227#1 -147633771#1 -601313558#1 -43068084#1 341018763#0 341018763#1 -190714064#1 -145204590#3 -145204590#1 -145204590#0 71167245 576802235 4687956 560707572#1 516074476 576802246 516074479 560707567 1305368071#0 1305368071#1 218284052#1 218284052#2 218284052#3 218284052#5 148067677#0 148067677#1 148067677#2 1305368068 622787504#1 12120796 50993194#0 50993194#1 622787518#0 50993192#0 74467052#1 190924565#0 190924563 546423855#0 190924568 -406730591#1 -1167905446 -1167905445#1 -968148930#1 -546093817#2 -546093817#1 -546093817#0 -28671072#1 461216263#0 -33713044#1 131569031#0 131569031#1 131569031#2 131569031#3 131569031#4 576429034#0 576429034#1 556777357#0 89614475#0 174007941#0 -89614473#1 -174007939#1 537156009#0 537156009#2 537156009#4 36724391#0 575246602#0 28687385#0 39762660#0 39763022#0 -42163436 38336179#1" />
    </vehicle>
    <vehicle id="hw_26" type="passenger_car" depart="26.00">
        <route edges="9623489 173486724 189483998 9532404 1308759310 1177023264 1177023504 1177023265 35359564#0 35359564#0-AddedOffRampEdge 35359564#1 537948558 24150898 189484004#0 38687028 38152064#0 38210039" />
    </vehicle>
    <vehicle id="hw_27" type="passenger_car" depart="27.00">
        <route edges="137477230 624393074 438296341 78508613 1246474482 38687026 35359564#0 35359564#0-AddedOffRampEdge 35359564#1 537948558 24150898 189484004#0 38687028 38152064#0 17051850 189483994 39023162 537948564 137881935 38687027 137477233 1177026548 624393072" />
    </vehicle>
    <vehicle id="urban_11" depart="27.50" type="passenger_car">
        <route edges="-517501172 -563664971#0 95575626#0 563074576 4376121#0 4376121#1 1147015971 -4393002#3 -4393002#1 -4393002#0 -1113744422#2 -1113744422#1 -1113744422#0 533775756#0 549020386#0 549020386#1 534851512#0 361876821 569781024 15801814#0 60447877 1169386967 1169386959#0 148349697 -30748799 -544418922#1 -942285773#1 -35162769 -550432840#1 -35162767#1 -35162767#0 -550432841#1 331553004#0 1078174821 942348910#0 -860373105#3 -860373105#1 -860373105#0 524434352 543698012#0 4572089 4440330#0 860373106#0 860373106#1 1163547442#0 -1390108240 -842455631 -603349777 -15675699 75470557#0 284686652 284686647 547047277#0 28682875 27433876#0 27433876#1 1169703853 -70748314#1 -26154816 -26154817 -15218556#4 -15218556#2 -15218556#1 -1282935997#2 -1282935997#0 207123543 207123540 1259390768 817922724#1 1374699303 14478528 546118559 546118553 546118547#0 546118547#2 546118536 422926694 546118524#0 546118521 546118531 546118526#0 706159402 32928688 208193951 -820246657 -820246658#0 -37839663#5 31539007#0 31539007#1" />
    </vehicle>
    <vehicle id="hw_28" type="passenger_car" depart="28.00">
        <route edges="17051627 1296210318 537948563 32278541 537948562 44774431 210731931#0 548701320 32391480#0 39013713 284105541 32391483#0 32391483#1 -604653795#2 -604653795#0 -10567987#1 -10567987#0 24668899 554029744 214071214 821484879#0 821414822 821484874#0 207669528 608387914 313461876 38209977 38327026#0 38327026#1 1304300499 1304300500 437752159 840189966#0 38210039" />
    </vehicle>
    <vehicle id="hw_29" type="passenger_car" depart="29.00">
        <route edges="24043220 22944609 44774429 537948560 537948559 17051721 537948567 537948564 137881935 38687027 137477233 1177026548 624393072" />
    </vehicle>
    <vehicle id="urban_12" depart="30.00" type="passenger_car">
        <route edges="-8105720#0 -1375209836#0 -536821231 -576460468#1 -576471543#2 -576471543#1 -576471543#0 -4626793#1 584194747 4622096#0 4622096#1 4721152#0 4721152#1 1098892318 -23734867 -575246677 -575246675 -47609444 -4721151 -557621121#1 525373506#0 23734869 36723900 542148064 89609602" />
    </vehicle>
    <vehicle id="hw_30" type="passenger_car" depart="30.00">
        <route edges="32278537 840189967#0 38687028 38152064#0 17051850 189483994 39023162 537948564 137881935 38687027 137477233 1177026548 624393072" />
    </vehicle>
    <vehicle id="hw_31" type="passenger_car" depart="31.00">
        <route edges="32391483#0 32391483#1 24043173 548701320 32391480#0 39013713 284105541 24043220 22944609 44774429 537948560 537948559 17051721 24375635 40959640 40959640-AddedOffRampEdge 136130942 1246474483 1246474484 1246474485 1246474488" />
    </vehicle>
    <vehicle id="urban_13" depart="32.50" type="passenger_car">
        <route edges="-12877498 11911721#0 -11911634 -569039038 41084260 4805456#0 142304939#0 142304939#1 569325185 51348158 51344147 51470082 701858643 32278426 257237951 50638676 294323347 294323346 90062588#0 25956729 -1055792179#1 -381223036#1 -381201436 -188867142#1 27410107#0 1167488601 32434222 4734976 461211027 461211028 577246823 4734974 145204590#0 145204590#1 145204590#2 423368254#0 146783879 43068084#0 601313558#0 147633771#0 11943595 1163500949#0 1113744422#1 1113744422#2 4393002#0 4393002#1 4393002#2 198488290#0 198488290#1 198488290#2 522547661#0 1364503427 1364503428 5198100#0 95575632 601313586 563664967 563664980#0 563664980#1 -15504663" />
    </vehicle>
    <vehicle id="hw_34" type="passenger_car" depart="34.00">
        <route edges="24043220 22944609 44774429 537948560 537948559 17051721 24375635 40959640 40959640-AddedOffRampEdge 136130942 1246474483 1246474484 1246474485 1246474488 537948565 537948565-AddedOffRampEdge 32278537 840189967#0 38687028 38152064#0 38210039" />
    </vehicle>
    <vehicle id="urban_14" depart="35.00" type="passenger_car">
        <route edges="528465800 1120617076 1120617075 23167459#0 23167459#1 23167459#2 259338343 259338347 -541012880 -745075215 -745075214 -16503129#1 -16503129#0 541012878 -541012882 -541012889 541012884 -541012883 -541012886 -541012870#3 -541012870#1 -541012870#0 -541012856 -541012867 -541012857 -541012858 -541012895#1 -541012895#0 -541012868 23644733 506653374 23548485 395173268#0 395173268#1 609220454 6068757 24043178#0 188708015 817867131 188708013#0 188708013#1 1364281503 817867132#0 4440330#0 860373106#0 860373106#1 1163547442#0 1122939439#0 -298904471#1 298904469#1 1384314608#0 313465298#0 596514120 596514119#0 29116100#0 29116100#2 29116100#3 29116100#4 -4803465#2 371342811#0 374533048 683609958#1 683609958#2 683609958#3 -4803425 -26646344 4803456#0 4803456#1 4803456#2 -15217539#1 26646102" />
    </vehicle>
    <vehicle id="hw_35" type="passenger_car" depart="35.00">
        <route edges="137477230 624393074 438296341 78508613 1246474482 38687026 35359564#0 35359564#0-AddedOffRampEdge 35359564#1 537948558 24150898 189484004#0 38687028 38152064#0 38210039 40959640 40959640-AddedOffRampEdge 136130942 1246474483 1246474484 1246474485 1246474488" />
    </vehicle>
    <vehicle id="hw_36" type="passenger_car" depart="36.00">
        <route edges="137477230 624393074 438296341 78508613 1246474482 38687026 35359564#0 35359564#0-AddedOffRampEdge 35359564#1 537948558 24150898 189484004#0 38687028 38152064#0 17051850 189483994 39023162 537948564 137881935 38687027 137477233 1177026548 624393072" />
    </vehicle>
    <vehicle id="hw_37" type="passenger_car" depart="37.00">
        <route edges="9623489 173486724 189483998 9532404 1308759310 1177023264 1177023504 1177023265 35359564#0 35359564#0-AddedOffRampEdge 35359564#1 38867855 32278541 537948562 44774431 210731931#0 548701320 32391480#0 39013713 284105541 24043220 22944609 44774429 537948560 537948559 17051721 24375635" />
    </vehicle>
    <vehicle id="urban_15" depart="37.50" type="passenger_car">
        <route edges="4495236 -122970112#0 -1113744422#2 -1113744422#1 -1113744422#0 533775756#0 549020386#0 549020386#1 534851512#0 361876821 569781024 15801814#0 60447877 1169386967 1169386959#0 148349697 -30748799 -544418922#1 -942285773#1 -35162769 -550432840#1 -35162767#1 -35162767#0 -550432841#1 331553004#0 1078174821 942348910#0 -860373105#3 -860373105#1 -860373105#0 524434352 543698012#0 4572089 4440330#0 860373106#0 860373106#1 1163547442#0 -1390108240 -842455631 -603349777 -15675699 75470557#0 284686652 284686647 547047277#0 28682875 284686651 547047228 15218593 68485346#0 68485346#1 284686646 1324659288 1163561640#0 826204850#0 826204850#1 374541881 371721469 536844180 143738524 218455027 1273201169 26154765#0 525960750#1 26154762 28127417#0 90082019#0 28193587#0 29199470 852138914#0 -852138915#1 -29199469#0 -852138916 -28127457#1 -818849823#1 -309802506#1 -1273201030 -180127144 -307957331#1 -423902072#1 -84223375#2 -84223375#1 -84223375#0 -475618319#1 -475618319#0 475618318#0 475618318#1 8762942 41222879#0 41222880" />
    </vehicle>
    <vehicle id="hw_38" type="passenger_car" depart="38.00">
        <route edges="9623489 173486724 189483998 9532404 1308759310 1177023264 1177023504 1177023265 35359564#0 35359564#0-AddedOffRampEdge 35359564#1 537948558 24150898 189484004#0 38687028 38152064#0 38210039" />
    </vehicle>
    <vehicle id="hw_39" type="passenger_car" depart="39.00">
        <route edges="32278537 840189967#0 38687028 1299502116 1299502115 374430168 369337851 27038301 437752160 1059553010 38327025#0 207669537 -821484874#1 -821414822 -821484879#1 -554029745#1 -554029744 -1050464202 10567987#0 10567987#1 604653795#0 604653795#1 24043173" />
    </vehicle>
    <vehicle id="urban_16" depart="40.00" type="passenger_car">
        <route edges="10595667 -762115123 -443206642 -1210733820 -194211946#0 -420623847 28687600#0 28687600#1 530760613#0 530760613#1 1137244531#0 28423788 536961099 1137244529 1395340223 11391988 8420633 32041764 -13870985#1 -13870985#0 10621794 444245102#0 566728815 38092527 10621634 1166324776#0 35046136 94717982 1235466090 94717984#0 35286915 760873574#0 35286914 -574419153 -574419154 24286056#1 -434344661#1 -434344661#0 35286407 572383206 -880564390#0" />
    </vehicle>
    <vehicle id="hw_40" type="passenger_car" depart="40.00">
        <route edges="32391483#0 32391483#1 24043173 548701320 32391480#0 39013713 284105541 24043220 22944609 44774429 537948560 537948559 17051721 24375635 40959640 40959640-AddedOffRampEdge 136130942 1246474483 1246474484 1246474485 1246474488" />
    </vehicle>
    <vehicle id="hw_41" type="passenger_car" depart="41.00">
        <route edges="137477230 624393074 438296341 78508613 1246474482 38687026 35359564#0 35359564#0-AddedOffRampEdge 35359564#1 537948558 24150898 189484004#0 38687028 38152064#0 38210039" />
    </vehicle>
    <vehicle id="urban_17" depart="42.50" type="passenger_car">
        <route edges="-548370033 4730416#0 548370035 334810150#0 334810150#1 140726947 609970340 536908734 536908725 670738521#0 371344296#0 371344296#1 602621681 602621673 498169246 889067535 37684124 35164367 8139899#0 188867142#0 381201436 381223036#0 1055792179#0 90062595#0 90062590 90004143 90062603-AddedOnRampEdge 90062603 90062603-AddedOffRampEdge 147239331 257237956 26828044 8420606 38093974 646891480 444245101 13870985#0 13870985#1 32041768#0 32041768#2 141698824#0 141698824#1 566728848 566218730#0 566728851 566728849#0 198481170#0 198481170#2 198481170#3 566218728 -566728845 566728847 187825604" />
    </vehicle>
    <vehicle id="hw_43" type="passenger_car" depart="43.00">
        <route edges="17051627 1296210318 537948563 32278541 537948562 44774431 210731931#0 548701320 32391480#0 39013713 284105541 32391483#0 32391483#1 -604653795#2 -604653795#0 -10567987#1 -10567987#0 24668899 554029744 214071214 821484879#0 821414822 821484874#0 207669528 608387914 313461876 38209977 38327026#0 38327026#1 1304300499 1304300500 437752159 840189966#0 38210039" />
    </vehicle>
    <vehicle id="urban_18" depart="45.00" type="passenger_car">
        <route edges="506241513#1 558664520#3 606145411#0 367057662 90082058#0 606145414 454975000 28687261 90082034 1350859696 371162145#0 1163354923 362892919 385873746#1 385873746#2 381190531#0 381190531#1 381190531#2 550657241 38255459 1167100906#0 533566033#0 32391477#0 4730804 29188369 23167504#0 313463919 536837427 143738525 536844180 143738524 218455027 1273201169 26154765#0 525960750#1 26154762 28127417#0 90082019#0 1163561074#0 1035592854 571403216 1051585662#0 11348827#0 11348827#2 11348827#3 11348827#5 11348827#6 511497635 28193626 820246658#1 208193950 32928686 32928689 24660416 23643372 28088332" />
    </vehicle>
    <vehicle id="hw_45" type="passenger_car" depart="45.00">
        <route edges="32391483#0 32391483#1 24043173 548701320 32391480#0 39013713 284105541 24043220 22944609 44774429 537948560 537948559 17051721 24375635 40959640 40959640-AddedOffRampEdge 136130942 1246474483 1246474484 1246474485 1246474488" />
    </vehicle>
    <vehicle id="hw_46" type="passenger_car" depart="46.00">
        <route edges="17051627 1296210318 537948563 32278541 537948562 44774431 210731931#0 548701320 32391480#0 39013713 284105541 32391483#0 32391483#1 -604653795#2 -604653795#0 -10567987#1 -10567987#0 24668899 554029744 214071214 821484879#0 821414822 821484874#0 207669528 608387914 313461876 38209977 38327026#0 38327026#1 1304300499 1304300500 437752159 840189966#0 38210039" />
    </vehicle>
    <vehicle id="urban_19" depart="47.50" type="passenger_car">
        <route edges="542234843 179425262 5074027 -5074037#2 -5074037#1 -5074037#0 5067587#1 5067587#2 5067587#3 5067587#4 30535162#0 1163570278#0 839695994 -136129993 49152441 369337851 27038301 437752160 43250246 207681377#0 313461876 38209977 38327026#0 38327026#1 1304300499 1304300500 437752159 840189966#0 38210039 40959640 40959640-AddedOffRampEdge 708025135 537948566 -1216599914#1 -708025131#1 -708025132 -708025123 -708025121 -45446225#1 -708025103 -1159573731 -24151338#1 -17090637#1 41702260#0 41702260#1 41702260#3 610819291#0 10212718#0 610819290#1 1160597831 1136712941 23644554#0 -538990032 -23843995#1" />
    </vehicle>
    <vehicle id="hw_48" type="passenger_car" depart="48.00">
        <route edges="32278537 840189967#0 38687028 1299502116 1299502115 374430168 369337851 27038301 437752160 1059553010 38327025#0 207669537 -821484874#1 -821414822 -821484879#1 -554029745#1 -554029744 -1050464202 10567987#0 10567987#1 604653795#0 604653795#1 24043173" />
    </vehicle>
    <vehicle id="hw_49" type="passenger_car" depart="49.00">
        <route edges="32391483#0 32391483#1 24043173" />
    </vehicle>
    <vehicle id="urban_20" depart="50.00" type="passenger_car">
        <route edges="268045039 268045040#0 28193162#0 775871916 549175732#0 497887654 1137249231#0 142304936#0 27411318#0 536821796#0 28567647#0 536823977 561297487 -536826949#1 -536836676 -1210783332 -35275929#1 -174693504#2 -1210782730 -1210782731 -174693508#1 -131499837 968722827 968722828#1 558630440#0 558630440#1 -31284963 -12210759" />
    </vehicle>
    <vehicle id="hw_50" type="passenger_car" depart="50.00">
        <route edges="32278537 840189967#0 38687028 38152064#0 38210039 40959640 40959640-AddedOffRampEdge 136130942 1246474483 1246474484 1246474485 1246474488" />
    </vehicle>
    <vehicle id="hw_51" type="passenger_car" depart="51.00">
        <route edges="32278537 840189967#0 38687028 38152064#0 38210039" />
    </vehicle>
    <vehicle id="hw_52" type="passenger_car" depart="52.00">
        <route edges="137477230 624393074 438296341 78508613 1246474482 38687026 35359564#0 35359564#0-AddedOffRampEdge 35359564#1 537948558 24150898 189484004#0 38687028 38152064#0 38210039 40959640 40959640-AddedOffRampEdge 136130942 1246474483 1246474484 1246474485 1246474488" />
    </vehicle>
    <vehicle id="urban_21" depart="52.50" type="passenger_car">
        <route edges="-29343716#1 32347510 603005462#0 14500255#0 14500255#1 371730209 362892928 362892927 371730207 90524263#0 90524278 27410450 406566076 364777051#1 32242185 32242234 536824257#1 27467445#0 27467445#1 534203013#0 534203013#1 534203016#0 41266871#0 31574072 577501568 534203014#0 51337490 50993193 27467471 -622787510 -94717988#1 -94717979 -94717976 -572383207#1 -572383207#0 -374405691 35286407 572383206 -880564390#0 167699653#0 -155248202 -1055882953 -41276562#6 -41276562#4 -41276562#2 -41276562#1 -560041134#1 -190714063 -455142372 -622478770 28817691#0 12619390#0 522323450 29215866 565470597 -150091891 -150091892#1 -150091892#0 4392996 564038055#1 -593681930" />
    </vehicle>
    <vehicle id="hw_53" type="passenger_car" depart="53.00">
        <route edges="137477230 624393074 438296341 78508613 1246474482 38687026 35359564#0 35359564#0-AddedOffRampEdge 35359564#1 38867855 32278541 537948562 44774431 210731931#0" />